ELMER SOLVER (v 8.4) STARTED AT: 2021/04/27 18:00:47
ELMER SOLVER (v 8.4) STARTED AT: 2021/04/27 18:00:47
ELMER SOLVER (v 8.4) STARTED AT: 2021/04/27 18:00:47
ELMER SOLVER (v 8.4) STARTED AT: 2021/04/27 18:00:47
ELMER SOLVER (v 8.4) STARTED AT: 2021/04/27 18:00:47
ELMER SOLVER (v 8.4) STARTED AT: 2021/04/27 18:00:47
ELMER SOLVER (v 8.4) STARTED AT: 2021/04/27 18:00:47
ELMER SOLVER (v 8.4) STARTED AT: 2021/04/27 18:00:47
ELMER SOLVER (v 8.4) STARTED AT: 2021/04/27 18:00:47
ELMER SOLVER (v 8.4) STARTED AT: 2021/04/27 18:00:47
ELMER SOLVER (v 8.4) STARTED AT: 2021/04/27 18:00:47
ELMER SOLVER (v 8.4) STARTED AT: 2021/04/27 18:00:47
ELMER SOLVER (v 8.4) STARTED AT: 2021/04/27 18:00:47
ELMER SOLVER (v 8.4) STARTED AT: 2021/04/27 18:00:47
ELMER SOLVER (v 8.4) STARTED AT: 2021/04/27 18:00:47
ELMER SOLVER (v 8.4) STARTED AT: 2021/04/27 18:00:47
ELMER SOLVER (v 8.4) STARTED AT: 2021/04/27 18:00:47
ELMER SOLVER (v 8.4) STARTED AT: 2021/04/27 18:00:47
ELMER SOLVER (v 8.4) STARTED AT: 2021/04/27 18:00:47
ELMER SOLVER (v 8.4) STARTED AT: 2021/04/27 18:00:47
ELMER SOLVER (v 8.4) STARTED AT: 2021/04/27 18:00:47
ELMER SOLVER (v 8.4) STARTED AT: 2021/04/27 18:00:47
ELMER SOLVER (v 8.4) STARTED AT: 2021/04/27 18:00:47
ELMER SOLVER (v 8.4) STARTED AT: 2021/04/27 18:00:47
ELMER SOLVER (v 8.4) STARTED AT: 2021/04/27 18:00:47
ELMER SOLVER (v 8.4) STARTED AT: 2021/04/27 18:00:47
ELMER SOLVER (v 8.4) STARTED AT: 2021/04/27 18:00:47
ELMER SOLVER (v 8.4) STARTED AT: 2021/04/27 18:00:47
ELMER SOLVER (v 8.4) STARTED AT: 2021/04/27 18:00:47
ELMER SOLVER (v 8.4) STARTED AT: 2021/04/27 18:00:47
ELMER SOLVER (v 8.4) STARTED AT: 2021/04/27 18:00:47
ELMER SOLVER (v 8.4) STARTED AT: 2021/04/27 18:00:47
ELMER SOLVER (v 8.4) STARTED AT: 2021/04/27 18:00:47
ELMER SOLVER (v 8.4) STARTED AT: 2021/04/27 18:00:47
ELMER SOLVER (v 8.4) STARTED AT: 2021/04/27 18:00:47
ELMER SOLVER (v 8.4) STARTED AT: 2021/04/27 18:00:47
ELMER SOLVER (v 8.4) STARTED AT: 2021/04/27 18:00:47
ELMER SOLVER (v 8.4) STARTED AT: 2021/04/27 18:00:47
ELMER SOLVER (v 8.4) STARTED AT: 2021/04/27 18:00:47
ELMER SOLVER (v 8.4) STARTED AT: 2021/04/27 18:00:47
ELMER SOLVER (v 8.4) STARTED AT: 2021/04/27 18:00:47
ELMER SOLVER (v 8.4) STARTED AT: 2021/04/27 18:00:47
ELMER SOLVER (v 8.4) STARTED AT: 2021/04/27 18:00:47
ELMER SOLVER (v 8.4) STARTED AT: 2021/04/27 18:00:47
ELMER SOLVER (v 8.4) STARTED AT: 2021/04/27 18:00:47
ELMER SOLVER (v 8.4) STARTED AT: 2021/04/27 18:00:47
ELMER SOLVER (v 8.4) STARTED AT: 2021/04/27 18:00:47
ELMER SOLVER (v 8.4) STARTED AT: 2021/04/27 18:00:47
ELMER SOLVER (v 8.4) STARTED AT: 2021/04/27 18:00:47
ELMER SOLVER (v 8.4) STARTED AT: 2021/04/27 18:00:47
ELMER SOLVER (v 8.4) STARTED AT: 2021/04/27 18:00:47
ELMER SOLVER (v 8.4) STARTED AT: 2021/04/27 18:00:47
ELMER SOLVER (v 8.4) STARTED AT: 2021/04/27 18:00:47
ELMER SOLVER (v 8.4) STARTED AT: 2021/04/27 18:00:47
ELMER SOLVER (v 8.4) STARTED AT: 2021/04/27 18:00:47
ELMER SOLVER (v 8.4) STARTED AT: 2021/04/27 18:00:47
ELMER SOLVER (v 8.4) STARTED AT: 2021/04/27 18:00:47
ELMER SOLVER (v 8.4) STARTED AT: 2021/04/27 18:00:47
ELMER SOLVER (v 8.4) STARTED AT: 2021/04/27 18:00:47
ELMER SOLVER (v 8.4) STARTED AT: 2021/04/27 18:00:47
ELMER SOLVER (v 8.4) STARTED AT: 2021/04/27 18:00:47
ELMER SOLVER (v 8.4) STARTED AT: 2021/04/27 18:00:47
ELMER SOLVER (v 8.4) STARTED AT: 2021/04/27 18:00:47
ELMER SOLVER (v 8.4) STARTED AT: 2021/04/27 18:00:47
ELMER SOLVER (v 8.4) STARTED AT: 2021/04/27 18:00:47
ELMER SOLVER (v 8.4) STARTED AT: 2021/04/27 18:00:47
ELMER SOLVER (v 8.4) STARTED AT: 2021/04/27 18:00:47
ELMER SOLVER (v 8.4) STARTED AT: 2021/04/27 18:00:47
ELMER SOLVER (v 8.4) STARTED AT: 2021/04/27 18:00:47
ELMER SOLVER (v 8.4) STARTED AT: 2021/04/27 18:00:47
ELMER SOLVER (v 8.4) STARTED AT: 2021/04/27 18:00:47
ELMER SOLVER (v 8.4) STARTED AT: 2021/04/27 18:00:47
ELMER SOLVER (v 8.4) STARTED AT: 2021/04/27 18:00:47
ELMER SOLVER (v 8.4) STARTED AT: 2021/04/27 18:00:47
ELMER SOLVER (v 8.4) STARTED AT: 2021/04/27 18:00:47
ELMER SOLVER (v 8.4) STARTED AT: 2021/04/27 18:00:47
ELMER SOLVER (v 8.4) STARTED AT: 2021/04/27 18:00:47
ELMER SOLVER (v 8.4) STARTED AT: 2021/04/27 18:00:47
ELMER SOLVER (v 8.4) STARTED AT: 2021/04/27 18:00:47
ELMER SOLVER (v 8.4) STARTED AT: 2021/04/27 18:00:47
ELMER SOLVER (v 8.4) STARTED AT: 2021/04/27 18:00:47
ELMER SOLVER (v 8.4) STARTED AT: 2021/04/27 18:00:47
ELMER SOLVER (v 8.4) STARTED AT: 2021/04/27 18:00:47
ELMER SOLVER (v 8.4) STARTED AT: 2021/04/27 18:00:47
ELMER SOLVER (v 8.4) STARTED AT: 2021/04/27 18:00:47
ELMER SOLVER (v 8.4) STARTED AT: 2021/04/27 18:00:47
ELMER SOLVER (v 8.4) STARTED AT: 2021/04/27 18:00:47
ELMER SOLVER (v 8.4) STARTED AT: 2021/04/27 18:00:47
ELMER SOLVER (v 8.4) STARTED AT: 2021/04/27 18:00:47
ELMER SOLVER (v 8.4) STARTED AT: 2021/04/27 18:00:47
ELMER SOLVER (v 8.4) STARTED AT: 2021/04/27 18:00:47
ELMER SOLVER (v 8.4) STARTED AT: 2021/04/27 18:00:47
ELMER SOLVER (v 8.4) STARTED AT: 2021/04/27 18:00:47
ELMER SOLVER (v 8.4) STARTED AT: 2021/04/27 18:00:47
ELMER SOLVER (v 8.4) STARTED AT: 2021/04/27 18:00:47
ELMER SOLVER (v 8.4) STARTED AT: 2021/04/27 18:00:47
ELMER SOLVER (v 8.4) STARTED AT: 2021/04/27 18:00:47
ELMER SOLVER (v 8.4) STARTED AT: 2021/04/27 18:00:47
ELMER SOLVER (v 8.4) STARTED AT: 2021/04/27 18:00:47
ELMER SOLVER (v 8.4) STARTED AT: 2021/04/27 18:00:47
ELMER SOLVER (v 8.4) STARTED AT: 2021/04/27 18:00:47
ELMER SOLVER (v 8.4) STARTED AT: 2021/04/27 18:00:47
ELMER SOLVER (v 8.4) STARTED AT: 2021/04/27 18:00:47
ELMER SOLVER (v 8.4) STARTED AT: 2021/04/27 18:00:47
ELMER SOLVER (v 8.4) STARTED AT: 2021/04/27 18:00:47
ELMER SOLVER (v 8.4) STARTED AT: 2021/04/27 18:00:47
ELMER SOLVER (v 8.4) STARTED AT: 2021/04/27 18:00:47
ELMER SOLVER (v 8.4) STARTED AT: 2021/04/27 18:00:47
ELMER SOLVER (v 8.4) STARTED AT: 2021/04/27 18:00:47
ELMER SOLVER (v 8.4) STARTED AT: 2021/04/27 18:00:47
ELMER SOLVER (v 8.4) STARTED AT: 2021/04/27 18:00:47
ELMER SOLVER (v 8.4) STARTED AT: 2021/04/27 18:00:47
ELMER SOLVER (v 8.4) STARTED AT: 2021/04/27 18:00:47
ELMER SOLVER (v 8.4) STARTED AT: 2021/04/27 18:00:47
ELMER SOLVER (v 8.4) STARTED AT: 2021/04/27 18:00:47
ELMER SOLVER (v 8.4) STARTED AT: 2021/04/27 18:00:47
ELMER SOLVER (v 8.4) STARTED AT: 2021/04/27 18:00:47
ELMER SOLVER (v 8.4) STARTED AT: 2021/04/27 18:00:47
ELMER SOLVER (v 8.4) STARTED AT: 2021/04/27 18:00:47
ELMER SOLVER (v 8.4) STARTED AT: 2021/04/27 18:00:47
ELMER SOLVER (v 8.4) STARTED AT: 2021/04/27 18:00:47
ELMER SOLVER (v 8.4) STARTED AT: 2021/04/27 18:00:47
ELMER SOLVER (v 8.4) STARTED AT: 2021/04/27 18:00:47
ELMER SOLVER (v 8.4) STARTED AT: 2021/04/27 18:00:47
ELMER SOLVER (v 8.4) STARTED AT: 2021/04/27 18:00:47
ELMER SOLVER (v 8.4) STARTED AT: 2021/04/27 18:00:47
ELMER SOLVER (v 8.4) STARTED AT: 2021/04/27 18:00:47
ELMER SOLVER (v 8.4) STARTED AT: 2021/04/27 18:00:47
ParCommInit:  Initialize #PEs:          128
ParCommInit:  Initialize #PEs:          128
ParCommInit:  Initialize #PEs:          128
ParCommInit:  Initialize #PEs:          128
ParCommInit:  Initialize #PEs:          128
ParCommInit:  Initialize #PEs:          128
ParCommInit:  Initialize #PEs:          128
ParCommInit:  Initialize #PEs:          128
ParCommInit:  Initialize #PEs:          128
ParCommInit:  Initialize #PEs:          128
ParCommInit:  Initialize #PEs:          128
ParCommInit:  Initialize #PEs:          128
ParCommInit:  Initialize #PEs:          128
ParCommInit:  Initialize #PEs:          128
ParCommInit:  Initialize #PEs:          128
ParCommInit:  Initialize #PEs:          128
ParCommInit:  Initialize #PEs:          128
ParCommInit:  Initialize #PEs:          128
ParCommInit:  Initialize #PEs:          128
ParCommInit:  Initialize #PEs:          128
ParCommInit:  Initialize #PEs:          128
ParCommInit:  Initialize #PEs:          128
ParCommInit:  Initialize #PEs:          128
ParCommInit:  Initialize #PEs:          128
ParCommInit:  Initialize #PEs:          128
ParCommInit:  Initialize #PEs:          128
ParCommInit:  Initialize #PEs:          128
ParCommInit:  Initialize #PEs:          128
ParCommInit:  Initialize #PEs:          128
ParCommInit:  Initialize #PEs:          128
ParCommInit:  Initialize #PEs:          128
ParCommInit:  Initialize #PEs:          128
ParCommInit:  Initialize #PEs:          128
ParCommInit:  Initialize #PEs:          128
ParCommInit:  Initialize #PEs:          128
ParCommInit:  Initialize #PEs:          128
ParCommInit:  Initialize #PEs:          128
ParCommInit:  Initialize #PEs:          128
ParCommInit:  Initialize #PEs:          128
ParCommInit:  Initialize #PEs:          128
ParCommInit:  Initialize #PEs:          128
ParCommInit:  Initialize #PEs:          128
ParCommInit:  Initialize #PEs:          128
ParCommInit:  Initialize #PEs:          128
ParCommInit:  Initialize #PEs:          128
ParCommInit:  Initialize #PEs:          128
ParCommInit:  Initialize #PEs:          128
ParCommInit:  Initialize #PEs:          128
ParCommInit:  Initialize #PEs:          128
ParCommInit:  Initialize #PEs:          128
ParCommInit:  Initialize #PEs:          128
ParCommInit:  Initialize #PEs:          128
ParCommInit:  Initialize #PEs:          128
ParCommInit:  Initialize #PEs:          128
ParCommInit:  Initialize #PEs:          128
ParCommInit:  Initialize #PEs:          128
ParCommInit:  Initialize #PEs:          128
ParCommInit:  Initialize #PEs:          128
ParCommInit:  Initialize #PEs:          128
ParCommInit:  Initialize #PEs:          128
ParCommInit:  Initialize #PEs:          128
ParCommInit:  Initialize #PEs:          128
ParCommInit:  Initialize #PEs:          128
ParCommInit:  Initialize #PEs:          128
ParCommInit:  Initialize #PEs:          128
ParCommInit:  Initialize #PEs:          128
ParCommInit:  Initialize #PEs:          128
ParCommInit:  Initialize #PEs:          128
ParCommInit:  Initialize #PEs:          128
ParCommInit:  Initialize #PEs:          128
ParCommInit:  Initialize #PEs:          128
ParCommInit:  Initialize #PEs:          128
ParCommInit:  Initialize #PEs:          128
ParCommInit:  Initialize #PEs:          128
ParCommInit:  Initialize #PEs:          128
ParCommInit:  Initialize #PEs:          128
ParCommInit:  Initialize #PEs:          128
ParCommInit:  Initialize #PEs:          128
ParCommInit:  Initialize #PEs:          128
ParCommInit:  Initialize #PEs:          128
ParCommInit:  Initialize #PEs:          128
ParCommInit:  Initialize #PEs:          128
ParCommInit:  Initialize #PEs:          128
ParCommInit:  Initialize #PEs:          128
ParCommInit:  Initialize #PEs:          128
ParCommInit:  Initialize #PEs:          128
ParCommInit:  Initialize #PEs:          128
ParCommInit:  Initialize #PEs:          128
ParCommInit:  Initialize #PEs:          128
ParCommInit:  Initialize #PEs:          128
ParCommInit:  Initialize #PEs:          128
ParCommInit:  Initialize #PEs:          128
ParCommInit:  Initialize #PEs:          128
ParCommInit:  Initialize #PEs:          128
ParCommInit:  Initialize #PEs:          128
ParCommInit:  Initialize #PEs:          128
ParCommInit:  Initialize #PEs:          128
ParCommInit:  Initialize #PEs:          128
ParCommInit:  Initialize #PEs:          128
ParCommInit:  Initialize #PEs:          128
ParCommInit:  Initialize #PEs:          128
ParCommInit:  Initialize #PEs:          128
ParCommInit:  Initialize #PEs:          128
ParCommInit:  Initialize #PEs:          128
ParCommInit:  Initialize #PEs:          128
ParCommInit:  Initialize #PEs:          128
ParCommInit:  Initialize #PEs:          128
ParCommInit:  Initialize #PEs:          128
ParCommInit:  Initialize #PEs:          128
ParCommInit:  Initialize #PEs:          128
ParCommInit:  Initialize #PEs:          128
ParCommInit:  Initialize #PEs:          128
ParCommInit:  Initialize #PEs:          128
ParCommInit:  Initialize #PEs:          128
ParCommInit:  Initialize #PEs:          128
ParCommInit:  Initialize #PEs:          128
ParCommInit:  Initialize #PEs:          128
ParCommInit:  Initialize #PEs:          128
ParCommInit:  Initialize #PEs:          128
ParCommInit:  Initialize #PEs:          128
ParCommInit:  Initialize #PEs:          128
ParCommInit:  Initialize #PEs:          128
ParCommInit:  Initialize #PEs:          128
ParCommInit:  Initialize #PEs:          128
ParCommInit:  Initialize #PEs:          128
ParCommInit:  Initialize #PEs:          128
ParCommInit:  Initialize #PEs:          128
ParCommInit:  Initialize #PEs:          128
MAIN: 
MAIN: =============================================================
MAIN: ElmerSolver finite element software, Welcome!
MAIN: This program is free software licensed under (L)GPL
MAIN: Copyright 1st April 1995 - , CSC - IT Center for Science Ltd.
MAIN: Webpage http://www.csc.fi/elmer, Email elmeradm@csc.fi
MAIN: Version: 8.4 (Rev: 3c3a578, Compiled: 2020-12-30)
MAIN:  Running in parallel using 128 tasks.
MAIN:  Running with just one thread per task.
MAIN:  HYPRE library linked in.
MAIN:  MUMPS library linked in.
MAIN:  Lua interpreted linked in.
MAIN: =============================================================
LoadInputFile: Reading only "Run Control" section
MAIN: 
MAIN: 
MAIN: -------------------------------------
MAIN: Reading Model: Simple_TStest.sif
LoadInputFile: Scanning input file: Simple_TStest.sif
LoadInputFile: Scanning only size info
LoadInputFile: First time visiting
LoadInputFile: Reading base load of sif file
LoadInputFile: Loading input file: Simple_TStest.sif
LoadInputFile: Reading base load of sif file
Model Input:  Unlisted keyword: [rhoo] in section: [constants]
Model Input:  Unlisted keyword: [rhoi] in section: [constants]
Model Input:  Unlisted keyword: [fs lower] in section: [initial condition 1]
Model Input:  Unlisted keyword: [fs upper] in section: [initial condition 1]
Model Input:  Unlisted keyword: [dvu_ext] in section: [initial condition 1]
Model Input:  Unlisted keyword: [cauchy] in section: [material 1]
Model Input:  Unlisted keyword: [limit temperature] in section: [material 1]
Model Input:  Unlisted keyword: [sea level] in section: [material 1]
Model Input:  Unlisted keyword: [top surface variable name] in section: [solver 2]
Model Input:  Unlisted keyword: [bottom surface variable name] in section: [solver 2]
Model Input:  Unlisted keyword: [correct surface] in section: [solver 2]
Model Input:  Unlisted keyword: [minimum height] in section: [solver 2]
Model Input:  Unlisted keyword: [minimum height] in section: [solver 3]
Model Input:  Unlisted keyword: [top surface variable name] in section: [solver 3]
Model Input:  Unlisted keyword: [bottom surface variable name] in section: [solver 3]
Model Input:  Unlisted keyword: [correct surface] in section: [solver 3]
Model Input:  Unlisted keyword: [toler] in section: [solver 5]
Model Input:  Unlisted keyword: [bedrock variable] in section: [solver 5]
Model Input:  Unlisted keyword: [computeall] in section: [solver 6]
Model Input:  Unlisted keyword: [nonlinear system abort not converged] in section: [solver 8]
Loading user function library: [ElmerIceUSF]...[SeaPressure]
Model Input:  Unlisted keyword: [compute sea pressure] in section: [boundary condition 2]
Model Input:  Unlisted keyword: [test contact tolerance] in section: [boundary condition 3]
Model Input:  Unlisted keyword: [height] in section: [boundary condition 3]
Model Input:  Unlisted keyword: [fs lower] in section: [boundary condition 3]
Loading user function library: [ElmerIceUSF]...[SeaSpring]
Model Input:  Unlisted keyword: [compute sea spring] in section: [boundary condition 3]
Model Input:  Unlisted keyword: [depth] in section: [boundary condition 4]
Model Input:  Unlisted keyword: [fs upper] in section: [boundary condition 4]
LoadInputFile: Number of BCs: 4
LoadInputFile: Number of Body Forces: 1
LoadInputFile: Number of Initial Conditions: 1
LoadInputFile: Number of Materials: 2
LoadInputFile: Number of Equations: 2
LoadInputFile: Number of Solvers: 9
LoadInputFile: Number of Bodies: 2
Loading user function library: [DummySolver]...[DummySolver_Init0]
Loading user function library: [StructuredMeshMapper]...[StructuredMeshMapper_Init0]
Loading user function library: [StructuredMeshMapper]...[StructuredMeshMapper_Init0]
Loading user function library: [StructuredProjectToPlane]...[StructuredProjectToPlane_Init0]
Loading user function library: [ElmerIceSolvers]...[GroundedSolver_Init0]
Loading user function library: [ElmerIceSolvers]...[ComputeNormalSolver_Init0]
Loading user function library: [ElmerIceSolvers]...[GetHydrostaticLoads_Init0]
Loading user function library: [ResultOutputSolve]...[ResultOutputSolver_Init0]
LoadMesh: Starting
ElmerAsciiMesh: Performing step: 1
LoadMesh: Base mesh name: ./../mesh2D_TG_refpart/
InitializeMesh: Number of nodes in mesh: 365
InitializeMesh: Number of bulk elements in mesh: 649
InitializeMesh: Number of boundary elements in mesh: 16
ElmerAsciiMesh: Performing step: 2
SetMeshDimension: Dimension of mesh is: 2
SetMeshDimension: Max dimension of mesh is: 2
ElmerAsciiMesh: Performing step: 3
ElmerAsciiMesh: Performing step: 4
LoadMesh: Performing node mapping
LoadMesh: Remapping boundaries
LoadMesh: Minimum initial boundary index: 2
LoadMesh: Maximum initial boundary index: 2
ElmerAsciiMesh: Performing step: 5
ElmerAsciiMesh: Performing step: 6
LoadMesh: Loading mesh done
LoadMesh: Elapsed REAL time:     0.0635 (s)
MeshStabParams: Computing stabilization parameters
MeshStabParams: Elapsed REAL time:     0.0003 (s)
UnitSegmentDivision: Creating functional division
UnitSegmentDivision: Convergence obtained in 135 iterations
UnitSegmentDivision: Mesh division ready
UnitSegmentDivision: w(0) :   0.0000E+00
UnitSegmentDivision: w(1) :   3.7444E-02
UnitSegmentDivision: w(2) :   7.8392E-02
UnitSegmentDivision: w(3) :   1.2317E-01
UnitSegmentDivision: w(4) :   1.7215E-01
UnitSegmentDivision: w(5) :   2.2571E-01
UnitSegmentDivision: w(6) :   2.8428E-01
UnitSegmentDivision: w(7) :   3.4833E-01
UnitSegmentDivision: w(8) :   4.1838E-01
UnitSegmentDivision: w(9) :   4.9499E-01
UnitSegmentDivision: w(10) :   5.7877E-01
UnitSegmentDivision: w(11) :   6.7039E-01
UnitSegmentDivision: w(12) :   7.7059E-01
UnitSegmentDivision: w(13) :   8.8017E-01
UnitSegmentDivision: w(14) :   1.0000E+00
MeshExtrude: First Extruded BC set to: 3
MeshExtrude: Number of new BCs for layers: 1
SetMeshDimension: Dimension of mesh is: 3
SetMeshDimension: Max dimension of mesh is: 3
NonNodalElements: Requested elements require creation of edges
FindMeshEdges: Determining faces in 3D mesh
FindMeshEdges: Determining edges in 3D mesh
MAIN: -------------------------------------
AddEquationBasics: Setting up solver: dummyroutine
Loading user function library: [DummySolver]...[DummySolver_Init]
Loading user function library: [DummySolver]...[DummySolver_bulk]
Loading user function library: [DummySolver]...[DummySolver]
AddEquationBasics: Creating standard variable: dummyv
OptimizeBandwidth: ---------------------------------------------------------
OptimizeBandwidth: Computing matrix structure for: dummyroutine...done.
OptimizeBandwidth: Half bandwidth without optimization: 719
OptimizeBandwidth: 
OptimizeBandwidth: Bandwidth Optimization ...done.
OptimizeBandwidth: Half bandwidth after optimization: 667
OptimizeBandwidth: ---------------------------------------------------------
AddEquationBasics: Setting up solver: mapcoordinate_init
Loading user function library: [StructuredMeshMapper]...[StructuredMeshMapper_Init]
Loading user function library: [StructuredMeshMapper]...[StructuredMeshMapper_bulk]
Loading user function library: [StructuredMeshMapper]...[StructuredMeshMapper]
AddEquationBasics: Setting up solver: mapcoordinate
Loading user function library: [StructuredMeshMapper]...[StructuredMeshMapper_Init]
Loading user function library: [StructuredMeshMapper]...[StructuredMeshMapper_bulk]
Loading user function library: [StructuredMeshMapper]...[StructuredMeshMapper]
AddEquationBasics: Setting up solver: heightdepth
Loading user function library: [StructuredProjectToPlane]...[StructuredProjectToPlane_Init]
Loading user function library: [StructuredProjectToPlane]...[StructuredProjectToPlane_bulk]
Loading user function library: [StructuredProjectToPlane]...[StructuredProjectToPlane]
AddEquationBasics: Setting up solver: groundedmask
Loading user function library: [ElmerIceSolvers]...[GroundedSolver_Init]
Loading user function library: [ElmerIceSolvers]...[GroundedSolver_bulk]
Loading user function library: [ElmerIceSolvers]...[GroundedSolver]
AddEquationBasics: Creating standard variable: groundedmask
OptimizeBandwidth: ---------------------------------------------------------
OptimizeBandwidth: Computing matrix structure for: groundedmask...done.
OptimizeBandwidth: Half bandwidth without optimization: 719
OptimizeBandwidth: 
OptimizeBandwidth: Bandwidth Optimization ...done.
OptimizeBandwidth: Half bandwidth after optimization: 667
OptimizeBandwidth: ---------------------------------------------------------
AddEquationBasics: Setting up solver: normal vector
Loading user function library: [ElmerIceSolvers]...[ComputeNormalSolver_Init]
Loading user function library: [ElmerIceSolvers]...[ComputeNormalSolver_bulk]
Loading user function library: [ElmerIceSolvers]...[ComputeNormalSolver]
AddEquationBasics: Creating standard variable: normal vector
OptimizeBandwidth: ---------------------------------------------------------
OptimizeBandwidth: Computing matrix structure for: normal vector...done.
OptimizeBandwidth: Half bandwidth without optimization: 719
OptimizeBandwidth: ---------------------------------------------------------
AddEquationBasics: Setting up solver: fw
Loading user function library: [ElmerIceSolvers]...[GetHydrostaticLoads_Init]
Loading user function library: [ElmerIceSolvers]...[GetHydrostaticLoads_bulk]
Loading user function library: [ElmerIceSolvers]...[GetHydrostaticLoads]
AddEquationBasics: Creating standard variable: fw[fwater:3]
OptimizeBandwidth: ---------------------------------------------------------
OptimizeBandwidth: Computing matrix structure for: fw...done.
OptimizeBandwidth: Half bandwidth without optimization: 352
OptimizeBandwidth: 
OptimizeBandwidth: Bandwidth Optimization ...done.
OptimizeBandwidth: Half bandwidth after optimization: 40
OptimizeBandwidth: ---------------------------------------------------------
AddEquationBasics: Setting up solver: navier-stokes
Loading user function library: [FlowSolve]...[FlowSolver_Init]
Loading user function library: [FlowSolve]...[FlowSolver_bulk]
Loading user function library: [FlowSolve]...[FlowSolver]
AddEquationBasics: Creating standard variable: flow solution[velocity:3 pressure:1]
OptimizeBandwidth: ---------------------------------------------------------
OptimizeBandwidth: Computing matrix structure for: navier-stokes...done.
OptimizeBandwidth: Half bandwidth without optimization: 719
OptimizeBandwidth: 
OptimizeBandwidth: Bandwidth Optimization ...done.
OptimizeBandwidth: Half bandwidth after optimization: 667
OptimizeBandwidth: ---------------------------------------------------------
AddEquationBasics: Setting up solver: resultoutput
Loading user function library: [ResultOutputSolve]...[ResultOutputSolver_Init]
Loading user function library: [ResultOutputSolve]...[ResultOutputSolver_bulk]
Loading user function library: [ResultOutputSolve]...[ResultOutputSolver]
Restart: Perfoming global Restart for:
LoadRestartFile: 
LoadRestartFile: --------------------------------------------
LoadRestartFile: Restart for mesh name:
LoadRestartFile: Restart for number of nodes: 5475
LoadRestartFile: Reading data from file: ../TG_S1p5/results/readnc_tempc_transient.result.0
LoadRestartFile: ASCII 3
LoadRestartFile: Reading ascii restart file version 3
LoadRestartFile: Creating variable: dvu
LoadRestartFile: Creating variable: vobs
LoadRestartFile: Creating variable: vx
LoadRestartFile: Creating variable: vy
LoadRestartFile: Creating variable: surface
LoadRestartFile: Creating variable: bed
LoadRestartFile: Creating variable: beta
LoadRestartFile: Creating variable: smbref
LoadRestartFile: Creating variable: q_geo
LoadRestartFile: Creating variable: as_perp_apl
LoadRestartFile: Creating variable: proj_smbref
LoadRestartFile: Creating variable: proj_surf
LoadRestartFile: Total number of dofs to load: 23
LoadRestartFile: Reading time sequence:    2.000E-01
LoadRestartFile: Reading timestep: 1
LoadRestartFile: Time spent for restart (s):      1.5024E-01
LoadRestartFile: All done
LoadRestartFile: --------------------------------------------
ElmerSolver: Number of timesteps to be saved: 1
SingleSolver: Attempting to call solver
SingleSolver: Solver Equation string is: mapcoordinate_init
StructuredMeshMapper: ---------------------------------------
StructuredMeshMapper: Performing mapping on a structured mesh
StructuredMeshMapper: ---------------------------------------
DetectExtrudedStructure: Determining extruded structure
DetectExtrudedStructure: Unit vector of direction:   0.000   0.000   1.000
DetectExtrudedStructure: determine top and bottom pointers
DetectExtrudedStructure: Layered structure detected in 14 cycles
DetectExtrudedStructure:  Top and bottom pointer init time:    2.9629999999998269E-003
DetectExtrudedStructure: Top and bottom pointer init rounds: 14
DetectExtrudedStructure: Number of nodes at the top: 365
DetectExtrudedStructure: Number of nodes at the bottom: 365
StructuredMeshMapper: Adjusting upper surface to maintain minimum height to: 0.1100E+02
StructuredMeshMapper: > Correct Surface < in case of intersecting upper and lower surface
ERROR:: StructuredMeshMapper: Bottom surface variable is missing: fs lower
ERROR:: StructuredMeshMapper: Bottom surface variable is missing: fs lower
ERROR:: StructuredMeshMapper: Bottom surface variable is missing: fs lower
ERROR:: StructuredMeshMapper: Bottom surface variable is missing: fs lower
ERROR:: StructuredMeshMapper: Bottom surface variable is missing: fs lower
ERROR:: StructuredMeshMapper: Bottom surface variable is missing: fs lower
ERROR:: StructuredMeshMapper: Bottom surface variable is missing: fs lower
ERROR:: StructuredMeshMapper: Bottom surface variable is missing: fs lower
ERROR:: StructuredMeshMapper: Bottom surface variable is missing: fs lower
ERROR:: StructuredMeshMapper: Bottom surface variable is missing: fs lower
ERROR:: StructuredMeshMapper: Bottom surface variable is missing: fs lower
ERROR:: StructuredMeshMapper: Bottom surface variable is missing: fs lower
ERROR:: StructuredMeshMapper: Bottom surface variable is missing: fs lower
ERROR:: StructuredMeshMapper: Bottom surface variable is missing: fs lower
ERROR:: StructuredMeshMapper: Bottom surface variable is missing: fs lower
ERROR:: StructuredMeshMapper: Bottom surface variable is missing: fs lower
ERROR:: StructuredMeshMapper: Bottom surface variable is missing: fs lower
ERROR:: StructuredMeshMapper: Bottom surface variable is missing: fs lower
ERROR:: StructuredMeshMapper: Bottom surface variable is missing: fs lower
ERROR:: StructuredMeshMapper: Bottom surface variable is missing: fs lower
ERROR:: StructuredMeshMapper: Bottom surface variable is missing: fs lower
ERROR:: StructuredMeshMapper: Bottom surface variable is missing: fs lower
ERROR:: StructuredMeshMapper: Bottom surface variable is missing: fs lower
ERROR:: StructuredMeshMapper: Bottom surface variable is missing: fs lower
ERROR:: StructuredMeshMapper: Bottom surface variable is missing: fs lower
ERROR:: StructuredMeshMapper: Bottom surface variable is missing: fs lower
ERROR:: StructuredMeshMapper: Bottom surface variable is missing: fs lower
ERROR:: StructuredMeshMapper: Bottom surface variable is missing: fs lower
ERROR:: StructuredMeshMapper: Bottom surface variable is missing: fs lower
ERROR:: StructuredMeshMapper: Bottom surface variable is missing: fs lower
ERROR:: StructuredMeshMapper: Bottom surface variable is missing: fs lower
ERROR:: StructuredMeshMapper: Bottom surface variable is missing: fs lower
ERROR:: StructuredMeshMapper: Bottom surface variable is missing: fs lower
ERROR:: StructuredMeshMapper: Bottom surface variable is missing: fs lower
ERROR:: StructuredMeshMapper: Bottom surface variable is missing: fs lower
ERROR:: StructuredMeshMapper: Bottom surface variable is missing: fs lower
ERROR:: StructuredMeshMapper: Bottom surface variable is missing: fs lower
ERROR:: StructuredMeshMapper: Bottom surface variable is missing: fs lower
ERROR:: StructuredMeshMapper: Bottom surface variable is missing: fs lower
ERROR:: StructuredMeshMapper: Bottom surface variable is missing: fs lower
ERROR:: StructuredMeshMapper: Bottom surface variable is missing: fs lower
ERROR:: StructuredMeshMapper: Bottom surface variable is missing: fs lower
ERROR:: StructuredMeshMapper: Bottom surface variable is missing: fs lower
ERROR:: StructuredMeshMapper: Bottom surface variable is missing: fs lower
ERROR:: StructuredMeshMapper: Bottom surface variable is missing: fs lower
ERROR:: StructuredMeshMapper: Bottom surface variable is missing: fs lower
ERROR:: StructuredMeshMapper: Bottom surface variable is missing: fs lower
ERROR:: StructuredMeshMapper: Bottom surface variable is missing: fs lower
ERROR:: StructuredMeshMapper: Bottom surface variable is missing: fs lower
ERROR:: StructuredMeshMapper: Bottom surface variable is missing: fs lower
ERROR:: StructuredMeshMapper: Bottom surface variable is missing: fs lower
ERROR:: StructuredMeshMapper: Bottom surface variable is missing: fs lower
ERROR:: StructuredMeshMapper: Bottom surface variable is missing: fs lower
ERROR:: StructuredMeshMapper: Bottom surface variable is missing: fs lower
ERROR:: StructuredMeshMapper: Bottom surface variable is missing: fs lower
ERROR:: StructuredMeshMapper: Bottom surface variable is missing: fs lower
ERROR:: StructuredMeshMapper: Bottom surface variable is missing: fs lower
ERROR:: StructuredMeshMapper: Bottom surface variable is missing: fs lower
ERROR:: StructuredMeshMapper: Bottom surface variable is missing: fs lower
ERROR:: StructuredMeshMapper: Bottom surface variable is missing: fs lower
ERROR:: StructuredMeshMapper: Bottom surface variable is missing: fs lower
ERROR:: StructuredMeshMapper: Bottom surface variable is missing: fs lower
ERROR:: StructuredMeshMapper: Bottom surface variable is missing: fs lower
ERROR:: StructuredMeshMapper: Bottom surface variable is missing: fs lower
ERROR:: StructuredMeshMapper: Bottom surface variable is missing: fs lower
ERROR:: StructuredMeshMapper: Bottom surface variable is missing: fs lower
ERROR:: StructuredMeshMapper: Bottom surface variable is missing: fs lower
ERROR:: StructuredMeshMapper: Bottom surface variable is missing: fs lower
ERROR:: StructuredMeshMapper: Bottom surface variable is missing: fs lower
ERROR:: StructuredMeshMapper: Bottom surface variable is missing: fs lower
ERROR:: StructuredMeshMapper: Bottom surface variable is missing: fs lower
ERROR:: StructuredMeshMapper: Bottom surface variable is missing: fs lower
ERROR:: StructuredMeshMapper: Bottom surface variable is missing: fs lower
ERROR:: StructuredMeshMapper: Bottom surface variable is missing: fs lower
ERROR:: StructuredMeshMapper: Bottom surface variable is missing: fs lower
ERROR:: StructuredMeshMapper: Bottom surface variable is missing: fs lower
ERROR:: StructuredMeshMapper: Bottom surface variable is missing: fs lower
ERROR:: StructuredMeshMapper: Bottom surface variable is missing: fs lower
ERROR:: StructuredMeshMapper: Bottom surface variable is missing: fs lower
ERROR:: StructuredMeshMapper: Bottom surface variable is missing: fs lower
ERROR:: StructuredMeshMapper: Bottom surface variable is missing: fs lower
ERROR:: StructuredMeshMapper: Bottom surface variable is missing: fs lower
ERROR:: StructuredMeshMapper: Bottom surface variable is missing: fs lower
ERROR:: StructuredMeshMapper: Bottom surface variable is missing: fs lower
ERROR:: StructuredMeshMapper: Bottom surface variable is missing: fs lower
ERROR:: StructuredMeshMapper: Bottom surface variable is missing: fs lower
ERROR:: StructuredMeshMapper: Bottom surface variable is missing: fs lower
ERROR:: StructuredMeshMapper: Bottom surface variable is missing: fs lower
ERROR:: StructuredMeshMapper: Bottom surface variable is missing: fs lower
ERROR:: StructuredMeshMapper: Bottom surface variable is missing: fs lower
ERROR:: StructuredMeshMapper: Bottom surface variable is missing: fs lower
ERROR:: StructuredMeshMapper: Bottom surface variable is missing: fs lower
ERROR:: StructuredMeshMapper: Bottom surface variable is missing: fs lower
ERROR:: StructuredMeshMapper: Bottom surface variable is missing: fs lower
ERROR:: StructuredMeshMapper: Bottom surface variable is missing: fs lower
ERROR:: StructuredMeshMapper: Bottom surface variable is missing: fs lower
ERROR:: StructuredMeshMapper: Bottom surface variable is missing: fs lower
ERROR:: StructuredMeshMapper: Bottom surface variable is missing: fs lower
ERROR:: StructuredMeshMapper: Bottom surface variable is missing: fs lower
ERROR:: StructuredMeshMapper: Bottom surface variable is missing: fs lower
ERROR:: StructuredMeshMapper: Bottom surface variable is missing: fs lower
ERROR:: StructuredMeshMapper: Bottom surface variable is missing: fs lower
ERROR:: StructuredMeshMapper: Bottom surface variable is missing: fs lower
ERROR:: StructuredMeshMapper: Bottom surface variable is missing: fs lower
ERROR:: StructuredMeshMapper: Bottom surface variable is missing: fs lower
ERROR:: StructuredMeshMapper: Bottom surface variable is missing: fs lower
ERROR:: StructuredMeshMapper: Bottom surface variable is missing: fs lower
ERROR:: StructuredMeshMapper: Bottom surface variable is missing: fs lower
ERROR:: StructuredMeshMapper: Bottom surface variable is missing: fs lower
ERROR:: StructuredMeshMapper: Bottom surface variable is missing: fs lower
ERROR:: StructuredMeshMapper: Bottom surface variable is missing: fs lower
ERROR:: StructuredMeshMapper: Bottom surface variable is missing: fs lower
ERROR:: StructuredMeshMapper: Bottom surface variable is missing: fs lower
ERROR:: StructuredMeshMapper: Bottom surface variable is missing: fs lower
ERROR:: StructuredMeshMapper: Bottom surface variable is missing: fs lower
ERROR:: StructuredMeshMapper: Bottom surface variable is missing: fs lower
ERROR:: StructuredMeshMapper: Bottom surface variable is missing: fs lower
ERROR:: StructuredMeshMapper: Bottom surface variable is missing: fs lower
ERROR:: StructuredMeshMapper: Bottom surface variable is missing: fs lower
ERROR:: StructuredMeshMapper: Bottom surface variable is missing: fs lower
ERROR:: StructuredMeshMapper: Bottom surface variable is missing: fs lower
ERROR:: StructuredMeshMapper: Bottom surface variable is missing: fs lower
ERROR:: StructuredMeshMapper: Bottom surface variable is missing: fs lower
ERROR:: StructuredMeshMapper: Bottom surface variable is missing: fs lower
ERROR:: StructuredMeshMapper: Bottom surface variable is missing: fs lower
ERROR:: StructuredMeshMapper: Bottom surface variable is missing: fs lower
ERROR:: StructuredMeshMapper: Bottom surface variable is missing: fs lower
ERROR:: StructuredMeshMapper: Bottom surface variable is missing: fs lower
