ELMER SOLVER (v 9.0) STARTED AT: 2021/03/19 13:46:02
ELMER SOLVER (v 9.0) STARTED AT: 2021/03/19 13:46:02
ELMER SOLVER (v 9.0) STARTED AT: 2021/03/19 13:46:02
ELMER SOLVER (v 9.0) STARTED AT: 2021/03/19 13:46:02
ELMER SOLVER (v 9.0) STARTED AT: 2021/03/19 13:46:02
ELMER SOLVER (v 9.0) STARTED AT: 2021/03/19 13:46:02
ELMER SOLVER (v 9.0) STARTED AT: 2021/03/19 13:46:02
ELMER SOLVER (v 9.0) STARTED AT: 2021/03/19 13:46:02
ELMER SOLVER (v 9.0) STARTED AT: 2021/03/19 13:46:02
ELMER SOLVER (v 9.0) STARTED AT: 2021/03/19 13:46:02
ELMER SOLVER (v 9.0) STARTED AT: 2021/03/19 13:46:02
ELMER SOLVER (v 9.0) STARTED AT: 2021/03/19 13:46:02
ELMER SOLVER (v 9.0) STARTED AT: 2021/03/19 13:46:02
ELMER SOLVER (v 9.0) STARTED AT: 2021/03/19 13:46:02
ELMER SOLVER (v 9.0) STARTED AT: 2021/03/19 13:46:02
ELMER SOLVER (v 9.0) STARTED AT: 2021/03/19 13:46:02
ELMER SOLVER (v 9.0) STARTED AT: 2021/03/19 13:46:02
ELMER SOLVER (v 9.0) STARTED AT: 2021/03/19 13:46:02
ELMER SOLVER (v 9.0) STARTED AT: 2021/03/19 13:46:02
ELMER SOLVER (v 9.0) STARTED AT: 2021/03/19 13:46:02
ELMER SOLVER (v 9.0) STARTED AT: 2021/03/19 13:46:02
ELMER SOLVER (v 9.0) STARTED AT: 2021/03/19 13:46:02
ELMER SOLVER (v 9.0) STARTED AT: 2021/03/19 13:46:02
ELMER SOLVER (v 9.0) STARTED AT: 2021/03/19 13:46:02
ELMER SOLVER (v 9.0) STARTED AT: 2021/03/19 13:46:02
ELMER SOLVER (v 9.0) STARTED AT: 2021/03/19 13:46:02
ELMER SOLVER (v 9.0) STARTED AT: 2021/03/19 13:46:02
ELMER SOLVER (v 9.0) STARTED AT: 2021/03/19 13:46:02
ELMER SOLVER (v 9.0) STARTED AT: 2021/03/19 13:46:02
ELMER SOLVER (v 9.0) STARTED AT: 2021/03/19 13:46:02
ELMER SOLVER (v 9.0) STARTED AT: 2021/03/19 13:46:02
ELMER SOLVER (v 9.0) STARTED AT: 2021/03/19 13:46:02
ELMER SOLVER (v 9.0) STARTED AT: 2021/03/19 13:46:02
ELMER SOLVER (v 9.0) STARTED AT: 2021/03/19 13:46:02
ELMER SOLVER (v 9.0) STARTED AT: 2021/03/19 13:46:02
ELMER SOLVER (v 9.0) STARTED AT: 2021/03/19 13:46:02
ELMER SOLVER (v 9.0) STARTED AT: 2021/03/19 13:46:02
ELMER SOLVER (v 9.0) STARTED AT: 2021/03/19 13:46:02
ELMER SOLVER (v 9.0) STARTED AT: 2021/03/19 13:46:02
ELMER SOLVER (v 9.0) STARTED AT: 2021/03/19 13:46:02
ELMER SOLVER (v 9.0) STARTED AT: 2021/03/19 13:46:02
ELMER SOLVER (v 9.0) STARTED AT: 2021/03/19 13:46:02
ELMER SOLVER (v 9.0) STARTED AT: 2021/03/19 13:46:02
ELMER SOLVER (v 9.0) STARTED AT: 2021/03/19 13:46:02
ELMER SOLVER (v 9.0) STARTED AT: 2021/03/19 13:46:02
ELMER SOLVER (v 9.0) STARTED AT: 2021/03/19 13:46:02
ELMER SOLVER (v 9.0) STARTED AT: 2021/03/19 13:46:02
ELMER SOLVER (v 9.0) STARTED AT: 2021/03/19 13:46:02
ELMER SOLVER (v 9.0) STARTED AT: 2021/03/19 13:46:02
ELMER SOLVER (v 9.0) STARTED AT: 2021/03/19 13:46:02
ELMER SOLVER (v 9.0) STARTED AT: 2021/03/19 13:46:02
ELMER SOLVER (v 9.0) STARTED AT: 2021/03/19 13:46:02
ELMER SOLVER (v 9.0) STARTED AT: 2021/03/19 13:46:02
ELMER SOLVER (v 9.0) STARTED AT: 2021/03/19 13:46:02
ELMER SOLVER (v 9.0) STARTED AT: 2021/03/19 13:46:02
ELMER SOLVER (v 9.0) STARTED AT: 2021/03/19 13:46:02
ELMER SOLVER (v 9.0) STARTED AT: 2021/03/19 13:46:02
ELMER SOLVER (v 9.0) STARTED AT: 2021/03/19 13:46:02
ELMER SOLVER (v 9.0) STARTED AT: 2021/03/19 13:46:02
ELMER SOLVER (v 9.0) STARTED AT: 2021/03/19 13:46:02
ELMER SOLVER (v 9.0) STARTED AT: 2021/03/19 13:46:02
ELMER SOLVER (v 9.0) STARTED AT: 2021/03/19 13:46:02
ELMER SOLVER (v 9.0) STARTED AT: 2021/03/19 13:46:02
ELMER SOLVER (v 9.0) STARTED AT: 2021/03/19 13:46:02
ELMER SOLVER (v 9.0) STARTED AT: 2021/03/19 13:46:02
ELMER SOLVER (v 9.0) STARTED AT: 2021/03/19 13:46:02
ELMER SOLVER (v 9.0) STARTED AT: 2021/03/19 13:46:02
ELMER SOLVER (v 9.0) STARTED AT: 2021/03/19 13:46:02
ELMER SOLVER (v 9.0) STARTED AT: 2021/03/19 13:46:02
ELMER SOLVER (v 9.0) STARTED AT: 2021/03/19 13:46:02
ELMER SOLVER (v 9.0) STARTED AT: 2021/03/19 13:46:02
ELMER SOLVER (v 9.0) STARTED AT: 2021/03/19 13:46:02
ELMER SOLVER (v 9.0) STARTED AT: 2021/03/19 13:46:02
ELMER SOLVER (v 9.0) STARTED AT: 2021/03/19 13:46:02
ELMER SOLVER (v 9.0) STARTED AT: 2021/03/19 13:46:02
ELMER SOLVER (v 9.0) STARTED AT: 2021/03/19 13:46:02
ELMER SOLVER (v 9.0) STARTED AT: 2021/03/19 13:46:02
ELMER SOLVER (v 9.0) STARTED AT: 2021/03/19 13:46:02
ELMER SOLVER (v 9.0) STARTED AT: 2021/03/19 13:46:02
ELMER SOLVER (v 9.0) STARTED AT: 2021/03/19 13:46:02
ELMER SOLVER (v 9.0) STARTED AT: 2021/03/19 13:46:02
ELMER SOLVER (v 9.0) STARTED AT: 2021/03/19 13:46:02
ELMER SOLVER (v 9.0) STARTED AT: 2021/03/19 13:46:02
ELMER SOLVER (v 9.0) STARTED AT: 2021/03/19 13:46:02
ELMER SOLVER (v 9.0) STARTED AT: 2021/03/19 13:46:02
ELMER SOLVER (v 9.0) STARTED AT: 2021/03/19 13:46:02
ELMER SOLVER (v 9.0) STARTED AT: 2021/03/19 13:46:02
ELMER SOLVER (v 9.0) STARTED AT: 2021/03/19 13:46:02
ELMER SOLVER (v 9.0) STARTED AT: 2021/03/19 13:46:02
ELMER SOLVER (v 9.0) STARTED AT: 2021/03/19 13:46:02
ELMER SOLVER (v 9.0) STARTED AT: 2021/03/19 13:46:02
ELMER SOLVER (v 9.0) STARTED AT: 2021/03/19 13:46:02
ELMER SOLVER (v 9.0) STARTED AT: 2021/03/19 13:46:02
ELMER SOLVER (v 9.0) STARTED AT: 2021/03/19 13:46:02
ELMER SOLVER (v 9.0) STARTED AT: 2021/03/19 13:46:02
ELMER SOLVER (v 9.0) STARTED AT: 2021/03/19 13:46:02
ELMER SOLVER (v 9.0) STARTED AT: 2021/03/19 13:46:02
ELMER SOLVER (v 9.0) STARTED AT: 2021/03/19 13:46:02
ELMER SOLVER (v 9.0) STARTED AT: 2021/03/19 13:46:02
ELMER SOLVER (v 9.0) STARTED AT: 2021/03/19 13:46:02
ELMER SOLVER (v 9.0) STARTED AT: 2021/03/19 13:46:02
ELMER SOLVER (v 9.0) STARTED AT: 2021/03/19 13:46:02
ELMER SOLVER (v 9.0) STARTED AT: 2021/03/19 13:46:02
ELMER SOLVER (v 9.0) STARTED AT: 2021/03/19 13:46:02
ELMER SOLVER (v 9.0) STARTED AT: 2021/03/19 13:46:02
ELMER SOLVER (v 9.0) STARTED AT: 2021/03/19 13:46:02
ELMER SOLVER (v 9.0) STARTED AT: 2021/03/19 13:46:02
ELMER SOLVER (v 9.0) STARTED AT: 2021/03/19 13:46:02
ELMER SOLVER (v 9.0) STARTED AT: 2021/03/19 13:46:02
ELMER SOLVER (v 9.0) STARTED AT: 2021/03/19 13:46:02
ELMER SOLVER (v 9.0) STARTED AT: 2021/03/19 13:46:02
ELMER SOLVER (v 9.0) STARTED AT: 2021/03/19 13:46:02
ELMER SOLVER (v 9.0) STARTED AT: 2021/03/19 13:46:02
ELMER SOLVER (v 9.0) STARTED AT: 2021/03/19 13:46:02
ELMER SOLVER (v 9.0) STARTED AT: 2021/03/19 13:46:02
ELMER SOLVER (v 9.0) STARTED AT: 2021/03/19 13:46:02
ELMER SOLVER (v 9.0) STARTED AT: 2021/03/19 13:46:02
ELMER SOLVER (v 9.0) STARTED AT: 2021/03/19 13:46:02
ELMER SOLVER (v 9.0) STARTED AT: 2021/03/19 13:46:02
ELMER SOLVER (v 9.0) STARTED AT: 2021/03/19 13:46:02
ELMER SOLVER (v 9.0) STARTED AT: 2021/03/19 13:46:02
ELMER SOLVER (v 9.0) STARTED AT: 2021/03/19 13:46:02
ELMER SOLVER (v 9.0) STARTED AT: 2021/03/19 13:46:02
ELMER SOLVER (v 9.0) STARTED AT: 2021/03/19 13:46:02
ELMER SOLVER (v 9.0) STARTED AT: 2021/03/19 13:46:02
ELMER SOLVER (v 9.0) STARTED AT: 2021/03/19 13:46:02
ELMER SOLVER (v 9.0) STARTED AT: 2021/03/19 13:46:02
ELMER SOLVER (v 9.0) STARTED AT: 2021/03/19 13:46:02
ParCommInit:  Initialize #PEs:          128
ParCommInit:  Initialize #PEs:          128
ParCommInit:  Initialize #PEs:          128
ParCommInit:  Initialize #PEs:          128
ParCommInit:  Initialize #PEs:          128
ParCommInit:  Initialize #PEs:          128
ParCommInit:  Initialize #PEs:          128
ParCommInit:  Initialize #PEs:          128
ParCommInit:  Initialize #PEs:          128
ParCommInit:  Initialize #PEs:          128
ParCommInit:  Initialize #PEs:          128
ParCommInit:  Initialize #PEs:          128
ParCommInit:  Initialize #PEs:          128
ParCommInit:  Initialize #PEs:          128
ParCommInit:  Initialize #PEs:          128
ParCommInit:  Initialize #PEs:          128
ParCommInit:  Initialize #PEs:          128
ParCommInit:  Initialize #PEs:          128
ParCommInit:  Initialize #PEs:          128
ParCommInit:  Initialize #PEs:          128
ParCommInit:  Initialize #PEs:          128
ParCommInit:  Initialize #PEs:          128
ParCommInit:  Initialize #PEs:          128
ParCommInit:  Initialize #PEs:          128
ParCommInit:  Initialize #PEs:          128
ParCommInit:  Initialize #PEs:          128
ParCommInit:  Initialize #PEs:          128
ParCommInit:  Initialize #PEs:          128
ParCommInit:  Initialize #PEs:          128
ParCommInit:  Initialize #PEs:          128
ParCommInit:  Initialize #PEs:          128
ParCommInit:  Initialize #PEs:          128
ParCommInit:  Initialize #PEs:          128
ParCommInit:  Initialize #PEs:          128
ParCommInit:  Initialize #PEs:          128
ParCommInit:  Initialize #PEs:          128
ParCommInit:  Initialize #PEs:          128
ParCommInit:  Initialize #PEs:          128
ParCommInit:  Initialize #PEs:          128
ParCommInit:  Initialize #PEs:          128
ParCommInit:  Initialize #PEs:          128
ParCommInit:  Initialize #PEs:          128
ParCommInit:  Initialize #PEs:          128
ParCommInit:  Initialize #PEs:          128
ParCommInit:  Initialize #PEs:          128
ParCommInit:  Initialize #PEs:          128
ParCommInit:  Initialize #PEs:          128
ParCommInit:  Initialize #PEs:          128
ParCommInit:  Initialize #PEs:          128
ParCommInit:  Initialize #PEs:          128
ParCommInit:  Initialize #PEs:          128
ParCommInit:  Initialize #PEs:          128
ParCommInit:  Initialize #PEs:          128
ParCommInit:  Initialize #PEs:          128
ParCommInit:  Initialize #PEs:          128
ParCommInit:  Initialize #PEs:          128
ParCommInit:  Initialize #PEs:          128
ParCommInit:  Initialize #PEs:          128
ParCommInit:  Initialize #PEs:          128
ParCommInit:  Initialize #PEs:          128
ParCommInit:  Initialize #PEs:          128
ParCommInit:  Initialize #PEs:          128
ParCommInit:  Initialize #PEs:          128
ParCommInit:  Initialize #PEs:          128
ParCommInit:  Initialize #PEs:          128
ParCommInit:  Initialize #PEs:          128
ParCommInit:  Initialize #PEs:          128
ParCommInit:  Initialize #PEs:          128
ParCommInit:  Initialize #PEs:          128
ParCommInit:  Initialize #PEs:          128
ParCommInit:  Initialize #PEs:          128
ParCommInit:  Initialize #PEs:          128
ParCommInit:  Initialize #PEs:          128
ParCommInit:  Initialize #PEs:          128
ParCommInit:  Initialize #PEs:          128
ParCommInit:  Initialize #PEs:          128
ParCommInit:  Initialize #PEs:          128
ParCommInit:  Initialize #PEs:          128
ParCommInit:  Initialize #PEs:          128
ParCommInit:  Initialize #PEs:          128
ParCommInit:  Initialize #PEs:          128
ParCommInit:  Initialize #PEs:          128
ParCommInit:  Initialize #PEs:          128
ParCommInit:  Initialize #PEs:          128
ParCommInit:  Initialize #PEs:          128
ParCommInit:  Initialize #PEs:          128
ParCommInit:  Initialize #PEs:          128
ParCommInit:  Initialize #PEs:          128
ParCommInit:  Initialize #PEs:          128
ParCommInit:  Initialize #PEs:          128
ParCommInit:  Initialize #PEs:          128
ParCommInit:  Initialize #PEs:          128
ParCommInit:  Initialize #PEs:          128
ParCommInit:  Initialize #PEs:          128
ParCommInit:  Initialize #PEs:          128
ParCommInit:  Initialize #PEs:          128
ParCommInit:  Initialize #PEs:          128
ParCommInit:  Initialize #PEs:          128
ParCommInit:  Initialize #PEs:          128
ParCommInit:  Initialize #PEs:          128
ParCommInit:  Initialize #PEs:          128
ParCommInit:  Initialize #PEs:          128
ParCommInit:  Initialize #PEs:          128
ParCommInit:  Initialize #PEs:          128
ParCommInit:  Initialize #PEs:          128
ParCommInit:  Initialize #PEs:          128
ParCommInit:  Initialize #PEs:          128
ParCommInit:  Initialize #PEs:          128
ParCommInit:  Initialize #PEs:          128
ParCommInit:  Initialize #PEs:          128
ParCommInit:  Initialize #PEs:          128
ParCommInit:  Initialize #PEs:          128
ParCommInit:  Initialize #PEs:          128
ParCommInit:  Initialize #PEs:          128
ParCommInit:  Initialize #PEs:          128
ParCommInit:  Initialize #PEs:          128
ParCommInit:  Initialize #PEs:          128
ParCommInit:  Initialize #PEs:          128
ParCommInit:  Initialize #PEs:          128
ParCommInit:  Initialize #PEs:          128
ParCommInit:  Initialize #PEs:          128
ParCommInit:  Initialize #PEs:          128
ParCommInit:  Initialize #PEs:          128
ParCommInit:  Initialize #PEs:          128
ParCommInit:  Initialize #PEs:          128
ParCommInit:  Initialize #PEs:          128
ParCommInit:  Initialize #PEs:          128
ParCommInit:  Initialize #PEs:          128
MAIN: 
MAIN: =============================================================
MAIN: ElmerSolver finite element software, Welcome!
MAIN: This program is free software licensed under (L)GPL
MAIN: Copyright 1st April 1995 - , CSC - IT Center for Science Ltd.
MAIN: Webpage http://www.csc.fi/elmer, Email elmeradm@csc.fi
MAIN: Version: 9.0 (Rev: fee0e53, Compiled: 2021-02-27)
MAIN:  Running in parallel using 128 tasks.
MAIN:  Running with just one thread per task.
MAIN:  HYPRE library linked in.
MAIN:  MUMPS library linked in.
MAIN:  Lua interpreted linked in.
MAIN: =============================================================
LoadInputFile: Trying to read "Run Control" section only
MAIN: 
MAIN: 
MAIN: -------------------------------------
MAIN: Reading Model: tempc_read.sif
LoadInputFile: Scanning input file: tempc_read.sif
LoadInputFile: Scanning only size info
LoadInputFile: First time visiting
LoadInputFile: Reading base load of sif file
LoadInputFile: Loading input file: tempc_read.sif
LoadInputFile: Reading base load of sif file
WARNING:: LoadInputFile: There are no BCs in the system!
WARNING:: LoadInputFile: There are no BCs in the system!
WARNING:: LoadInputFile: There are no BCs in the system!
CheckKeyword:  Unlisted keyword: [read full array] in section: [solver 2]
CheckKeyword:  Unlisted keyword: [x dim name] in section: [solver 2]
CheckKeyword:  Unlisted keyword: [y dim name] in section: [solver 2]
CheckKeyword:  Unlisted keyword: [z dim name] in section: [solver 2]
CheckKeyword:  Unlisted keyword: [x var name] in section: [solver 2]
CheckKeyword:  Unlisted keyword: [y var name] in section: [solver 2]
CheckKeyword:  Unlisted keyword: [z var name] in section: [solver 2]
CheckKeyword:  Unlisted keyword: [x epsilon] in section: [solver 2]
CheckKeyword:  Unlisted keyword: [y epsilon] in section: [solver 2]
CheckKeyword:  Unlisted keyword: [z epsilon] in section: [solver 2]
CheckKeyword:  Unlisted keyword: [interpolation offset] in section: [solver 2]
WARNING:: LoadInputFile: There are no BCs in the system!
WARNING:: LoadInputFile: There are no BCs in the system!
WARNING:: LoadInputFile: There are no BCs in the system!
WARNING:: LoadInputFile: There are no BCs in the system!
WARNING:: LoadInputFile: There are no BCs in the system!
WARNING:: LoadInputFile: There are no BCs in the system!
WARNING:: LoadInputFile: There are no BCs in the system!
WARNING:: LoadInputFile: There are no BCs in the system!
WARNING:: LoadInputFile: There are no BCs in the system!
WARNING:: LoadInputFile: There are no BCs in the system!
WARNING:: LoadInputFile: There are no BCs in the system!
WARNING:: LoadInputFile: There are no BCs in the system!
WARNING:: LoadInputFile: There are no BCs in the system!
WARNING:: LoadInputFile: There are no BCs in the system!
WARNING:: LoadInputFile: There are no BCs in the system!
WARNING:: LoadInputFile: There are no BCs in the system!
WARNING:: LoadInputFile: There are no BCs in the system!
WARNING:: LoadInputFile: There are no BCs in the system!
WARNING:: LoadInputFile: There are no BCs in the system!
WARNING:: LoadInputFile: There are no BCs in the system!
WARNING:: LoadInputFile: There are no BCs in the system!
WARNING:: LoadInputFile: There are no BCs in the system!
WARNING:: LoadInputFile: There are no BCs in the system!
WARNING:: LoadInputFile: There are no BCs in the system!
WARNING:: LoadInputFile: There are no BCs in the system!
WARNING:: LoadInputFile: There are no BCs in the system!
WARNING:: LoadInputFile: There are no BCs in the system!
WARNING:: LoadInputFile: There are no BCs in the system!
WARNING:: LoadInputFile: There are no BCs in the system!
WARNING:: LoadInputFile: There are no BCs in the system!
WARNING:: LoadInputFile: There are no BCs in the system!
WARNING:: LoadInputFile: There are no BCs in the system!
WARNING:: LoadInputFile: There are no BCs in the system!
WARNING:: LoadInputFile: There are no BCs in the system!
WARNING:: LoadInputFile: There are no BCs in the system!
WARNING:: LoadInputFile: There are no BCs in the system!
WARNING:: LoadInputFile: There are no BCs in the system!
WARNING:: LoadInputFile: There are no BCs in the system!
WARNING:: LoadInputFile: There are no BCs in the system!
WARNING:: LoadInputFile: There are no BCs in the system!
WARNING:: LoadInputFile: There are no BCs in the system!
WARNING:: LoadInputFile: There are no BCs in the system!
WARNING:: LoadInputFile: There are no BCs in the system!
WARNING:: LoadInputFile: There are no BCs in the system!
WARNING:: LoadInputFile: There are no BCs in the system!
WARNING:: LoadInputFile: There are no BCs in the system!
WARNING:: LoadInputFile: There are no BCs in the system!
WARNING:: LoadInputFile: There are no BCs in the system!
WARNING:: LoadInputFile: There are no BCs in the system!
WARNING:: LoadInputFile: There are no BCs in the system!
WARNING:: LoadInputFile: There are no BCs in the system!
WARNING:: LoadInputFile: There are no BCs in the system!
WARNING:: LoadInputFile: There are no BCs in the system!
WARNING:: LoadInputFile: There are no BCs in the system!
WARNING:: LoadInputFile: There are no BCs in the system!
WARNING:: LoadInputFile: There are no BCs in the system!
WARNING:: LoadInputFile: There are no BCs in the system!
WARNING:: LoadInputFile: There are no BCs in the system!
WARNING:: LoadInputFile: There are no BCs in the system!
WARNING:: LoadInputFile: There are no BCs in the system!
WARNING:: LoadInputFile: There are no BCs in the system!
WARNING:: LoadInputFile: There are no BCs in the system!
WARNING:: LoadInputFile: There are no BCs in the system!
WARNING:: LoadInputFile: There are no BCs in the system!
WARNING:: LoadInputFile: There are no BCs in the system!
WARNING:: LoadInputFile: There are no BCs in the system!
WARNING:: LoadInputFile: There are no BCs in the system!
WARNING:: LoadInputFile: There are no BCs in the system!
WARNING:: LoadInputFile: There are no BCs in the system!
WARNING:: LoadInputFile: There are no BCs in the system!
WARNING:: LoadInputFile: There are no BCs in the system!
WARNING:: LoadInputFile: There are no BCs in the system!
LoadInputFile: Number of Body Forces: 0
LoadInputFile: Number of Initial Conditions: 0
LoadInputFile: Number of Materials: 1
LoadInputFile: Number of Equations: 1
LoadInputFile: Number of Solvers: 3
LoadInputFile: Number of Bodies: 1
WARNING:: LoadInputFile: There are no BCs in the system!
WARNING:: LoadInputFile: There are no BCs in the system!
WARNING:: LoadInputFile: There are no BCs in the system!
WARNING:: LoadInputFile: There are no BCs in the system!
WARNING:: LoadInputFile: There are no BCs in the system!
WARNING:: LoadInputFile: There are no BCs in the system!
WARNING:: LoadInputFile: There are no BCs in the system!
WARNING:: LoadInputFile: There are no BCs in the system!
WARNING:: LoadInputFile: There are no BCs in the system!
WARNING:: LoadInputFile: There are no BCs in the system!
WARNING:: LoadInputFile: There are no BCs in the system!
WARNING:: LoadInputFile: There are no BCs in the system!
WARNING:: LoadInputFile: There are no BCs in the system!
WARNING:: LoadInputFile: There are no BCs in the system!
WARNING:: LoadInputFile: There are no BCs in the system!
WARNING:: LoadInputFile: There are no BCs in the system!
WARNING:: LoadInputFile: There are no BCs in the system!
WARNING:: LoadInputFile: There are no BCs in the system!
WARNING:: LoadInputFile: There are no BCs in the system!
WARNING:: LoadInputFile: There are no BCs in the system!
WARNING:: LoadInputFile: There are no BCs in the system!
WARNING:: LoadInputFile: There are no BCs in the system!
WARNING:: LoadInputFile: There are no BCs in the system!
WARNING:: LoadInputFile: There are no BCs in the system!
WARNING:: LoadInputFile: There are no BCs in the system!
WARNING:: LoadInputFile: There are no BCs in the system!
WARNING:: LoadInputFile: There are no BCs in the system!
WARNING:: LoadInputFile: There are no BCs in the system!
WARNING:: LoadInputFile: There are no BCs in the system!
WARNING:: LoadInputFile: There are no BCs in the system!
WARNING:: LoadInputFile: There are no BCs in the system!
WARNING:: LoadInputFile: There are no BCs in the system!
WARNING:: LoadInputFile: There are no BCs in the system!
WARNING:: LoadInputFile: There are no BCs in the system!
WARNING:: LoadInputFile: There are no BCs in the system!
WARNING:: LoadInputFile: There are no BCs in the system!
WARNING:: LoadInputFile: There are no BCs in the system!
WARNING:: LoadInputFile: There are no BCs in the system!
WARNING:: LoadInputFile: There are no BCs in the system!
WARNING:: LoadInputFile: There are no BCs in the system!
WARNING:: LoadInputFile: There are no BCs in the system!
WARNING:: LoadInputFile: There are no BCs in the system!
WARNING:: LoadInputFile: There are no BCs in the system!
WARNING:: LoadInputFile: There are no BCs in the system!
WARNING:: LoadInputFile: There are no BCs in the system!
WARNING:: LoadInputFile: There are no BCs in the system!
WARNING:: LoadInputFile: There are no BCs in the system!
WARNING:: LoadInputFile: There are no BCs in the system!
WARNING:: LoadInputFile: There are no BCs in the system!
WARNING:: LoadInputFile: There are no BCs in the system!
WARNING:: LoadInputFile: There are no BCs in the system!
WARNING:: LoadInputFile: There are no BCs in the system!
WARNING:: LoadInputFile: There are no BCs in the system!
Loading user function library: [DummySolver]...[DummySolver_Init0]
Loading user function library: [GridDataReader]...[GridDataReader_Init0]
Loading user function library: [ResultOutputSolve]...[ResultOutputSolver_Init0]
LoadMesh: Starting
ElmerAsciiMesh: Performing step: 1
ElmerAsciiMesh: Base mesh name: ./../mesh2D_TG_refpart/
InitializeMesh: Number of nodes in mesh: 365
InitializeMesh: Number of bulk elements in mesh: 649
InitializeMesh: Number of boundary elements in mesh: 16
ElmerAsciiMesh: Performing step: 2
SetMeshDimension: Dimension of mesh is: 2
SetMeshDimension: Max dimension of mesh is: 2
ElmerAsciiMesh: Performing step: 3
ElmerAsciiMesh: Performing step: 4
PermuteNodeNumbering: Performing node mapping
MapBodiesAndBCs: Remapping boundaries
MapBodiesAndBCs: Minimum initial boundary index: 2
MapBodiesAndBCs: Maximum initial boundary index: 2
ElmerAsciiMesh: Performing step: 5
ElmerAsciiMesh: Performing step: 6
LoadMesh: Loading mesh done
LoadMesh: Elapsed REAL time:     0.1154 (s)
MeshStabParams: Computing stabilization parameters
MeshStabParams: Elapsed REAL time:     0.0001 (s)
UnitSegmentDivision: Creating functional division
UnitSegmentDivision: Convergence obtained in 135 iterations
UnitSegmentDivision: Mesh division ready
UnitSegmentDivision: w(0) :   0.0000E+00
UnitSegmentDivision: w(1) :   3.7444E-02
UnitSegmentDivision: w(2) :   7.8392E-02
UnitSegmentDivision: w(3) :   1.2317E-01
UnitSegmentDivision: w(4) :   1.7215E-01
UnitSegmentDivision: w(5) :   2.2571E-01
UnitSegmentDivision: w(6) :   2.8428E-01
UnitSegmentDivision: w(7) :   3.4833E-01
UnitSegmentDivision: w(8) :   4.1838E-01
UnitSegmentDivision: w(9) :   4.9499E-01
UnitSegmentDivision: w(10) :   5.7877E-01
UnitSegmentDivision: w(11) :   6.7039E-01
UnitSegmentDivision: w(12) :   7.7059E-01
UnitSegmentDivision: w(13) :   8.8017E-01
UnitSegmentDivision: w(14) :   1.0000E+00
MeshExtrude: First Extruded BC set to: 1
MeshExtrude: Number of new BCs for layers: 1
SetMeshDimension: Dimension of mesh is: 3
SetMeshDimension: Max dimension of mesh is: 3
NonNodalElements: Requested elements require creation of edges
FindMeshEdges: Determining faces in 3D mesh
FindMeshEdges: Determining edges in 3D mesh
MAIN: -------------------------------------
AddEquationBasics: Setting up solver: dummyroutine
Loading user function library: [DummySolver]...[DummySolver_Init]
Loading user function library: [DummySolver]...[DummySolver_bulk]
Loading user function library: [DummySolver]...[DummySolver]
