ELMER SOLVER (v 9.0) STARTED AT: 2021/05/31 13:13:26
ELMER SOLVER (v 9.0) STARTED AT: 2021/05/31 13:13:26
ELMER SOLVER (v 9.0) STARTED AT: 2021/05/31 13:13:26
ELMER SOLVER (v 9.0) STARTED AT: 2021/05/31 13:13:26
ELMER SOLVER (v 9.0) STARTED AT: 2021/05/31 13:13:26
ELMER SOLVER (v 9.0) STARTED AT: 2021/05/31 13:13:26
ELMER SOLVER (v 9.0) STARTED AT: 2021/05/31 13:13:26
ELMER SOLVER (v 9.0) STARTED AT: 2021/05/31 13:13:26
ELMER SOLVER (v 9.0) STARTED AT: 2021/05/31 13:13:26
ELMER SOLVER (v 9.0) STARTED AT: 2021/05/31 13:13:26
ELMER SOLVER (v 9.0) STARTED AT: 2021/05/31 13:13:26
ELMER SOLVER (v 9.0) STARTED AT: 2021/05/31 13:13:26
ELMER SOLVER (v 9.0) STARTED AT: 2021/05/31 13:13:26
ELMER SOLVER (v 9.0) STARTED AT: 2021/05/31 13:13:26
ELMER SOLVER (v 9.0) STARTED AT: 2021/05/31 13:13:26
ELMER SOLVER (v 9.0) STARTED AT: 2021/05/31 13:13:26
ELMER SOLVER (v 9.0) STARTED AT: 2021/05/31 13:13:26
ELMER SOLVER (v 9.0) STARTED AT: 2021/05/31 13:13:26
ELMER SOLVER (v 9.0) STARTED AT: 2021/05/31 13:13:26
ELMER SOLVER (v 9.0) STARTED AT: 2021/05/31 13:13:26
ELMER SOLVER (v 9.0) STARTED AT: 2021/05/31 13:13:26
ELMER SOLVER (v 9.0) STARTED AT: 2021/05/31 13:13:26
ELMER SOLVER (v 9.0) STARTED AT: 2021/05/31 13:13:26
ELMER SOLVER (v 9.0) STARTED AT: 2021/05/31 13:13:26
ELMER SOLVER (v 9.0) STARTED AT: 2021/05/31 13:13:26
ELMER SOLVER (v 9.0) STARTED AT: 2021/05/31 13:13:26
ELMER SOLVER (v 9.0) STARTED AT: 2021/05/31 13:13:26
ELMER SOLVER (v 9.0) STARTED AT: 2021/05/31 13:13:26
ELMER SOLVER (v 9.0) STARTED AT: 2021/05/31 13:13:26
ELMER SOLVER (v 9.0) STARTED AT: 2021/05/31 13:13:26
ELMER SOLVER (v 9.0) STARTED AT: 2021/05/31 13:13:26
ELMER SOLVER (v 9.0) STARTED AT: 2021/05/31 13:13:26
ELMER SOLVER (v 9.0) STARTED AT: 2021/05/31 13:13:26
ELMER SOLVER (v 9.0) STARTED AT: 2021/05/31 13:13:26
ELMER SOLVER (v 9.0) STARTED AT: 2021/05/31 13:13:26
ELMER SOLVER (v 9.0) STARTED AT: 2021/05/31 13:13:26
ELMER SOLVER (v 9.0) STARTED AT: 2021/05/31 13:13:26
ELMER SOLVER (v 9.0) STARTED AT: 2021/05/31 13:13:26
ELMER SOLVER (v 9.0) STARTED AT: 2021/05/31 13:13:26
ELMER SOLVER (v 9.0) STARTED AT: 2021/05/31 13:13:26
ELMER SOLVER (v 9.0) STARTED AT: 2021/05/31 13:13:26
ELMER SOLVER (v 9.0) STARTED AT: 2021/05/31 13:13:26
ELMER SOLVER (v 9.0) STARTED AT: 2021/05/31 13:13:26
ELMER SOLVER (v 9.0) STARTED AT: 2021/05/31 13:13:26
ELMER SOLVER (v 9.0) STARTED AT: 2021/05/31 13:13:26
ELMER SOLVER (v 9.0) STARTED AT: 2021/05/31 13:13:26
ELMER SOLVER (v 9.0) STARTED AT: 2021/05/31 13:13:26
ELMER SOLVER (v 9.0) STARTED AT: 2021/05/31 13:13:26
ELMER SOLVER (v 9.0) STARTED AT: 2021/05/31 13:13:26
ELMER SOLVER (v 9.0) STARTED AT: 2021/05/31 13:13:26
ELMER SOLVER (v 9.0) STARTED AT: 2021/05/31 13:13:26
ELMER SOLVER (v 9.0) STARTED AT: 2021/05/31 13:13:26
ELMER SOLVER (v 9.0) STARTED AT: 2021/05/31 13:13:26
ELMER SOLVER (v 9.0) STARTED AT: 2021/05/31 13:13:26
ELMER SOLVER (v 9.0) STARTED AT: 2021/05/31 13:13:26
ELMER SOLVER (v 9.0) STARTED AT: 2021/05/31 13:13:26
ELMER SOLVER (v 9.0) STARTED AT: 2021/05/31 13:13:26
ELMER SOLVER (v 9.0) STARTED AT: 2021/05/31 13:13:26
ELMER SOLVER (v 9.0) STARTED AT: 2021/05/31 13:13:26
ELMER SOLVER (v 9.0) STARTED AT: 2021/05/31 13:13:26
ELMER SOLVER (v 9.0) STARTED AT: 2021/05/31 13:13:26
ELMER SOLVER (v 9.0) STARTED AT: 2021/05/31 13:13:26
ELMER SOLVER (v 9.0) STARTED AT: 2021/05/31 13:13:26
ELMER SOLVER (v 9.0) STARTED AT: 2021/05/31 13:13:26
ELMER SOLVER (v 9.0) STARTED AT: 2021/05/31 13:13:26
ELMER SOLVER (v 9.0) STARTED AT: 2021/05/31 13:13:26
ELMER SOLVER (v 9.0) STARTED AT: 2021/05/31 13:13:26
ELMER SOLVER (v 9.0) STARTED AT: 2021/05/31 13:13:26
ELMER SOLVER (v 9.0) STARTED AT: 2021/05/31 13:13:26
ELMER SOLVER (v 9.0) STARTED AT: 2021/05/31 13:13:26
ELMER SOLVER (v 9.0) STARTED AT: 2021/05/31 13:13:26
ELMER SOLVER (v 9.0) STARTED AT: 2021/05/31 13:13:26
ELMER SOLVER (v 9.0) STARTED AT: 2021/05/31 13:13:26
ELMER SOLVER (v 9.0) STARTED AT: 2021/05/31 13:13:26
ELMER SOLVER (v 9.0) STARTED AT: 2021/05/31 13:13:26
ELMER SOLVER (v 9.0) STARTED AT: 2021/05/31 13:13:26
ELMER SOLVER (v 9.0) STARTED AT: 2021/05/31 13:13:26
ELMER SOLVER (v 9.0) STARTED AT: 2021/05/31 13:13:26
ELMER SOLVER (v 9.0) STARTED AT: 2021/05/31 13:13:26
ELMER SOLVER (v 9.0) STARTED AT: 2021/05/31 13:13:26
ELMER SOLVER (v 9.0) STARTED AT: 2021/05/31 13:13:26
ELMER SOLVER (v 9.0) STARTED AT: 2021/05/31 13:13:26
ELMER SOLVER (v 9.0) STARTED AT: 2021/05/31 13:13:26
ELMER SOLVER (v 9.0) STARTED AT: 2021/05/31 13:13:26
ELMER SOLVER (v 9.0) STARTED AT: 2021/05/31 13:13:26
ELMER SOLVER (v 9.0) STARTED AT: 2021/05/31 13:13:26
ELMER SOLVER (v 9.0) STARTED AT: 2021/05/31 13:13:26
ELMER SOLVER (v 9.0) STARTED AT: 2021/05/31 13:13:26
ELMER SOLVER (v 9.0) STARTED AT: 2021/05/31 13:13:26
ELMER SOLVER (v 9.0) STARTED AT: 2021/05/31 13:13:26
ELMER SOLVER (v 9.0) STARTED AT: 2021/05/31 13:13:26
ELMER SOLVER (v 9.0) STARTED AT: 2021/05/31 13:13:26
ELMER SOLVER (v 9.0) STARTED AT: 2021/05/31 13:13:26
ELMER SOLVER (v 9.0) STARTED AT: 2021/05/31 13:13:26
ELMER SOLVER (v 9.0) STARTED AT: 2021/05/31 13:13:26
ELMER SOLVER (v 9.0) STARTED AT: 2021/05/31 13:13:26
ELMER SOLVER (v 9.0) STARTED AT: 2021/05/31 13:13:26
ELMER SOLVER (v 9.0) STARTED AT: 2021/05/31 13:13:26
ELMER SOLVER (v 9.0) STARTED AT: 2021/05/31 13:13:26
ELMER SOLVER (v 9.0) STARTED AT: 2021/05/31 13:13:26
ELMER SOLVER (v 9.0) STARTED AT: 2021/05/31 13:13:26
ELMER SOLVER (v 9.0) STARTED AT: 2021/05/31 13:13:26
ELMER SOLVER (v 9.0) STARTED AT: 2021/05/31 13:13:26
ELMER SOLVER (v 9.0) STARTED AT: 2021/05/31 13:13:26
ELMER SOLVER (v 9.0) STARTED AT: 2021/05/31 13:13:26
ELMER SOLVER (v 9.0) STARTED AT: 2021/05/31 13:13:26
ELMER SOLVER (v 9.0) STARTED AT: 2021/05/31 13:13:26
ELMER SOLVER (v 9.0) STARTED AT: 2021/05/31 13:13:26
ELMER SOLVER (v 9.0) STARTED AT: 2021/05/31 13:13:26
ELMER SOLVER (v 9.0) STARTED AT: 2021/05/31 13:13:26
ELMER SOLVER (v 9.0) STARTED AT: 2021/05/31 13:13:26
ELMER SOLVER (v 9.0) STARTED AT: 2021/05/31 13:13:26
ELMER SOLVER (v 9.0) STARTED AT: 2021/05/31 13:13:26
ELMER SOLVER (v 9.0) STARTED AT: 2021/05/31 13:13:26
ELMER SOLVER (v 9.0) STARTED AT: 2021/05/31 13:13:26
ELMER SOLVER (v 9.0) STARTED AT: 2021/05/31 13:13:26
ELMER SOLVER (v 9.0) STARTED AT: 2021/05/31 13:13:26
ELMER SOLVER (v 9.0) STARTED AT: 2021/05/31 13:13:26
ELMER SOLVER (v 9.0) STARTED AT: 2021/05/31 13:13:26
ELMER SOLVER (v 9.0) STARTED AT: 2021/05/31 13:13:26
ELMER SOLVER (v 9.0) STARTED AT: 2021/05/31 13:13:26
ELMER SOLVER (v 9.0) STARTED AT: 2021/05/31 13:13:26
ELMER SOLVER (v 9.0) STARTED AT: 2021/05/31 13:13:26
ELMER SOLVER (v 9.0) STARTED AT: 2021/05/31 13:13:26
ELMER SOLVER (v 9.0) STARTED AT: 2021/05/31 13:13:26
ELMER SOLVER (v 9.0) STARTED AT: 2021/05/31 13:13:26
ELMER SOLVER (v 9.0) STARTED AT: 2021/05/31 13:13:26
ELMER SOLVER (v 9.0) STARTED AT: 2021/05/31 13:13:26
ParCommInit:  Initialize #PEs:          128
ParCommInit:  Initialize #PEs:          128
ParCommInit:  Initialize #PEs:          128
ParCommInit:  Initialize #PEs:          128
ParCommInit:  Initialize #PEs:          128
ParCommInit:  Initialize #PEs:          128
ParCommInit:  Initialize #PEs:          128
ParCommInit:  Initialize #PEs:          128
ParCommInit:  Initialize #PEs:          128
ParCommInit:  Initialize #PEs:          128
ParCommInit:  Initialize #PEs:          128
ParCommInit:  Initialize #PEs:          128
ParCommInit:  Initialize #PEs:          128
ParCommInit:  Initialize #PEs:          128
ParCommInit:  Initialize #PEs:          128
ParCommInit:  Initialize #PEs:          128
ParCommInit:  Initialize #PEs:          128
ParCommInit:  Initialize #PEs:          128
ParCommInit:  Initialize #PEs:          128
ParCommInit:  Initialize #PEs:          128
ParCommInit:  Initialize #PEs:          128
ParCommInit:  Initialize #PEs:          128
ParCommInit:  Initialize #PEs:          128
ParCommInit:  Initialize #PEs:          128
ParCommInit:  Initialize #PEs:          128
ParCommInit:  Initialize #PEs:          128
ParCommInit:  Initialize #PEs:          128
ParCommInit:  Initialize #PEs:          128
ParCommInit:  Initialize #PEs:          128
ParCommInit:  Initialize #PEs:          128
ParCommInit:  Initialize #PEs:          128
ParCommInit:  Initialize #PEs:          128
ParCommInit:  Initialize #PEs:          128
ParCommInit:  Initialize #PEs:          128
ParCommInit:  Initialize #PEs:          128
ParCommInit:  Initialize #PEs:          128
ParCommInit:  Initialize #PEs:          128
ParCommInit:  Initialize #PEs:          128
ParCommInit:  Initialize #PEs:          128
ParCommInit:  Initialize #PEs:          128
ParCommInit:  Initialize #PEs:          128
ParCommInit:  Initialize #PEs:          128
ParCommInit:  Initialize #PEs:          128
ParCommInit:  Initialize #PEs:          128
ParCommInit:  Initialize #PEs:          128
ParCommInit:  Initialize #PEs:          128
ParCommInit:  Initialize #PEs:          128
ParCommInit:  Initialize #PEs:          128
ParCommInit:  Initialize #PEs:          128
ParCommInit:  Initialize #PEs:          128
ParCommInit:  Initialize #PEs:          128
ParCommInit:  Initialize #PEs:          128
ParCommInit:  Initialize #PEs:          128
ParCommInit:  Initialize #PEs:          128
ParCommInit:  Initialize #PEs:          128
ParCommInit:  Initialize #PEs:          128
ParCommInit:  Initialize #PEs:          128
ParCommInit:  Initialize #PEs:          128
ParCommInit:  Initialize #PEs:          128
ParCommInit:  Initialize #PEs:          128
ParCommInit:  Initialize #PEs:          128
ParCommInit:  Initialize #PEs:          128
ParCommInit:  Initialize #PEs:          128
ParCommInit:  Initialize #PEs:          128
ParCommInit:  Initialize #PEs:          128
ParCommInit:  Initialize #PEs:          128
ParCommInit:  Initialize #PEs:          128
ParCommInit:  Initialize #PEs:          128
ParCommInit:  Initialize #PEs:          128
ParCommInit:  Initialize #PEs:          128
ParCommInit:  Initialize #PEs:          128
ParCommInit:  Initialize #PEs:          128
ParCommInit:  Initialize #PEs:          128
ParCommInit:  Initialize #PEs:          128
ParCommInit:  Initialize #PEs:          128
ParCommInit:  Initialize #PEs:          128
ParCommInit:  Initialize #PEs:          128
ParCommInit:  Initialize #PEs:          128
ParCommInit:  Initialize #PEs:          128
ParCommInit:  Initialize #PEs:          128
ParCommInit:  Initialize #PEs:          128
ParCommInit:  Initialize #PEs:          128
ParCommInit:  Initialize #PEs:          128
ParCommInit:  Initialize #PEs:          128
ParCommInit:  Initialize #PEs:          128
ParCommInit:  Initialize #PEs:          128
ParCommInit:  Initialize #PEs:          128
ParCommInit:  Initialize #PEs:          128
ParCommInit:  Initialize #PEs:          128
ParCommInit:  Initialize #PEs:          128
ParCommInit:  Initialize #PEs:          128
ParCommInit:  Initialize #PEs:          128
ParCommInit:  Initialize #PEs:          128
ParCommInit:  Initialize #PEs:          128
ParCommInit:  Initialize #PEs:          128
ParCommInit:  Initialize #PEs:          128
ParCommInit:  Initialize #PEs:          128
ParCommInit:  Initialize #PEs:          128
ParCommInit:  Initialize #PEs:          128
ParCommInit:  Initialize #PEs:          128
ParCommInit:  Initialize #PEs:          128
ParCommInit:  Initialize #PEs:          128
ParCommInit:  Initialize #PEs:          128
ParCommInit:  Initialize #PEs:          128
ParCommInit:  Initialize #PEs:          128
ParCommInit:  Initialize #PEs:          128
ParCommInit:  Initialize #PEs:          128
ParCommInit:  Initialize #PEs:          128
ParCommInit:  Initialize #PEs:          128
ParCommInit:  Initialize #PEs:          128
ParCommInit:  Initialize #PEs:          128
ParCommInit:  Initialize #PEs:          128
ParCommInit:  Initialize #PEs:          128
ParCommInit:  Initialize #PEs:          128
ParCommInit:  Initialize #PEs:          128
ParCommInit:  Initialize #PEs:          128
ParCommInit:  Initialize #PEs:          128
ParCommInit:  Initialize #PEs:          128
ParCommInit:  Initialize #PEs:          128
ParCommInit:  Initialize #PEs:          128
ParCommInit:  Initialize #PEs:          128
ParCommInit:  Initialize #PEs:          128
ParCommInit:  Initialize #PEs:          128
ParCommInit:  Initialize #PEs:          128
ParCommInit:  Initialize #PEs:          128
ParCommInit:  Initialize #PEs:          128
ParCommInit:  Initialize #PEs:          128
ParCommInit:  Initialize #PEs:          128
MAIN: 
MAIN: =============================================================
MAIN: ElmerSolver finite element software, Welcome!
MAIN: This program is free software licensed under (L)GPL
MAIN: Copyright 1st April 1995 - , CSC - IT Center for Science Ltd.
MAIN: Webpage http://www.csc.fi/elmer, Email elmeradm@csc.fi
MAIN: Version: 9.0 (Rev: f888395, Compiled: 2021-05-27)
MAIN:  Running in parallel using 128 tasks.
MAIN:  Running with just one thread per task.
MAIN:  HYPRE library linked in.
MAIN:  MUMPS library linked in.
MAIN:  Lua interpreter linked in.
MAIN:  Zoltan library linked in.
MAIN: =============================================================
LoadInputFile: Trying to read "Run Control" section only
MAIN: 
MAIN: 
MAIN: -------------------------------------
MAIN: Reading Model: TG_invmu_S4.sif
LoadInputFile: Scanning input file: TG_invmu_S4.sif
LoadInputFile: Scanning only size info
LoadInputFile: First time visiting
LoadInputFile: Reading base load of sif file
LoadInputFile: Loading input file: TG_invmu_S4.sif
LoadInputFile: Reading base load of sif file
CheckKeyword:  Unlisted keyword: [buoyancy use basal melt] in section: [constants]
CheckKeyword:  Unlisted keyword: [sea level] in section: [constants]
CheckKeyword:  Unlisted keyword: [water density] in section: [constants]
CheckKeyword:  Unlisted keyword: [sea spring timestep size] in section: [constants]
CheckKeyword:  Unlisted keyword: [temperaturerel] in section: [initial condition 1]
CheckKeyword:  Unlisted keyword: [mu] in section: [initial condition 1]
CheckKeyword:  Unlisted keyword: [ef] in section: [initial condition 1]
CheckKeyword:  Unlisted keyword: [bottom ef] in section: [initial condition 1]
CheckKeyword:  Unlisted keyword: [costv passive] in section: [body force 1]
Loading user function library: [USFs]...[PassiveCond_H]
CheckKeyword:  Unlisted keyword: [passive element min nodes] in section: [body force 1]
CheckKeyword:  Unlisted keyword: [sea level] in section: [material 1]
Loading user function library: [USF_CoV]...[Asquare_Scaled]
CheckKeyword:  Unlisted keyword: [viscosity derivative] in section: [material 1]
Loading user function library: [USF_CoV]...[Asquare_d_Scaled]
CheckKeyword:  Unlisted keyword: [top surface variable name] in section: [solver 1]
CheckKeyword:  Unlisted keyword: [bottom surface variable name] in section: [solver 1]
CheckKeyword:  Unlisted keyword: [correct surface] in section: [solver 1]
CheckKeyword:  Unlisted keyword: [minimum height] in section: [solver 1]
CheckKeyword:  Unlisted keyword: [nonlinear system abort not converged] in section: [solver 3]
CheckKeyword:  Unlisted keyword: [problem dimension] in section: [solver 4]
CheckKeyword:  Unlisted keyword: [cost variable name] in section: [solver 4]
CheckKeyword:  Unlisted keyword: [cost filename] in section: [solver 4]
CheckKeyword:  Unlisted keyword: [lambda] in section: [solver 4]
CheckKeyword:  Unlisted keyword: [observed variable dimension] in section: [solver 4]
CheckKeyword:  Unlisted keyword: [observed variable name] in section: [solver 4]
CheckKeyword:  Unlisted keyword: [observation file name] in section: [solver 4]
CheckKeyword:  Unlisted keyword: [x var name] in section: [solver 4]
CheckKeyword:  Unlisted keyword: [y var name] in section: [solver 4]
CheckKeyword:  Unlisted keyword: [save used data] in section: [solver 4]
CheckKeyword:  Unlisted keyword: [direct solver equation name] in section: [solver 5]
CheckKeyword:  Unlisted keyword: [adjoint solution name] in section: [solver 6]
CheckKeyword:  Unlisted keyword: [optimized variable name] in section: [solver 6]
CheckKeyword:  Unlisted keyword: [gradient variable name] in section: [solver 6]
CheckKeyword:  Unlisted keyword: [project to bottom] in section: [solver 7]
CheckKeyword:  Unlisted keyword: [problem dimension] in section: [solver 8]
CheckKeyword:  Unlisted keyword: [cost filename] in section: [solver 8]
CheckKeyword:  Unlisted keyword: [optimized variable name] in section: [solver 8]
CheckKeyword:  Unlisted keyword: [gradient variable name] in section: [solver 8]
CheckKeyword:  Unlisted keyword: [cost variable name] in section: [solver 8]
CheckKeyword:  Unlisted keyword: [lambda] in section: [solver 8]
CheckKeyword:  Unlisted keyword: [reset cost value] in section: [solver 8]
CheckKeyword:  Unlisted keyword: [a priori regularisation] in section: [solver 8]
CheckKeyword:  Unlisted keyword: [cost variable name] in section: [solver 9]
CheckKeyword:  Unlisted keyword: [optimized variable name] in section: [solver 9]
CheckKeyword:  Unlisted keyword: [gradient variable name] in section: [solver 9]
CheckKeyword:  Unlisted keyword: [gradient norm file] in section: [solver 9]
CheckKeyword:  Unlisted keyword: [mesh independent] in section: [solver 9]
CheckKeyword:  Unlisted keyword: [m1qn3 dxmin] in section: [solver 9]
CheckKeyword:  Unlisted keyword: [m1qn3 epsg] in section: [solver 9]
CheckKeyword:  Unlisted keyword: [m1qn3 niter] in section: [solver 9]
CheckKeyword:  Unlisted keyword: [m1qn3 nsim] in section: [solver 9]
CheckKeyword:  Unlisted keyword: [m1qn3 impres] in section: [solver 9]
CheckKeyword:  Unlisted keyword: [m1qn3 dis mode] in section: [solver 9]
CheckKeyword:  Unlisted keyword: [m1qn3 df1] in section: [solver 9]
CheckKeyword:  Unlisted keyword: [m1qn3 normtype] in section: [solver 9]
CheckKeyword:  Unlisted keyword: [m1qn3 outputfile] in section: [solver 9]
CheckKeyword:  Unlisted keyword: [m1qn3 ndz] in section: [solver 9]
CheckKeyword:  Unlisted keyword: [friction load mask] in section: [equation 2]
Loading user function library: [ElmerIceUSF]...[SeaPressure]
CheckKeyword:  Unlisted keyword: [compute sea pressure] in section: [boundary condition 1]
Loading user function library: [ElmerIceUSF]...[TenPowerA_masked]
Loading user function library: [ElmerIceUSF]...[TenPowerA_masked]
Loading user function library: [USF_CoV]...[SeaSpring]
CheckKeyword:  Unlisted keyword: [compute sea spring] in section: [boundary condition 3]
LoadInputFile: Number of BCs: 4
LoadInputFile: Number of Body Forces: 1
LoadInputFile: Number of Initial Conditions: 1
LoadInputFile: Number of Materials: 1
LoadInputFile: Number of Equations: 3
LoadInputFile: Number of Solvers: 13
LoadInputFile: Number of Bodies: 3
Loading user function library: [StructuredMeshMapper]...[StructuredMeshMapper_Init0]
Loading user function library: [StructuredProjectToPlane]...[StructuredProjectToPlane_Init0]
Loading user function library: [ElmerIceSolvers]...[Adjoint_CostDiscSolver_Init0]
Loading user function library: [ElmerIceSolvers]...[Adjoint_LinearSolver_Init0]
Loading user function library: [ElmerIceSolvers]...[AdjointStokes_GradientMuSolver_Init0]
Loading user function library: [StructuredProjectToPlane]...[StructuredProjectToPlane_Init0]
Loading user function library: [ElmerIceSolvers]...[Adjoint_CostRegSolver_Init0]
Loading user function library: [ElmerIceSolvers]...[Optimize_m1qn3Parallel_Init0]
Loading user function library: [ElmerIceSolvers]...[GetEmergenceVelocity_Init0]
Loading user function library: [SaveData]...[SaveMaterials_Init0]
Loading user function library: [StructuredProjectToPlane]...[StructuredProjectToPlane_Init0]
Loading user function library: [ResultOutputSolve]...[ResultOutputSolver_Init0]
LoadMesh: Starting
ElmerAsciiMesh: Performing step: 1
ElmerAsciiMesh: Base mesh name: ./../mesh2D_TG_refpart/
InitializeMesh: Number of nodes in mesh: 504
InitializeMesh: Number of bulk elements in mesh: 893
InitializeMesh: Number of boundary elements in mesh: 62
ElmerAsciiMesh: Performing step: 2
SetMeshDimension: Dimension of mesh is: 2
SetMeshDimension: Max dimension of mesh is: 2
ElmerAsciiMesh: Performing step: 3
ElmerAsciiMesh: Performing step: 4
PermuteNodeNumbering: Performing node mapping
MapBodiesAndBCs: Remapping boundaries
MapBodiesAndBCs: Minimum initial boundary index: 1
MapBodiesAndBCs: Maximum initial boundary index: 2
ElmerAsciiMesh: Performing step: 5
ElmerAsciiMesh: Performing step: 6
LoadMesh: Loading mesh done
LoadMesh: Elapsed REAL time:     0.1449 (s)
MeshStabParams: Computing stabilization parameters
MeshStabParams: Elapsed REAL time:     0.0004 (s)
UnitSegmentDivision: Creating functional division
MeshExtrude: First Extruded BC set to: 3
MeshExtrude: Number of new BCs for layers: 1
SetMeshDimension: Dimension of mesh is: 3
SetMeshDimension: Max dimension of mesh is: 3
NonNodalElements: Requested elements require creation of edges
FindMeshEdges: Determining faces in 3D mesh
FindMeshEdges: Determining edges in 3D mesh
ParallelNonNodalElements: Number of initial nodes: 7560
ParallelNonNodalElements: Number of initial faces: 32939
ParallelNonNodalElements: Number of initial edges: 27996
ParallelNonNodalElements: Number of shared nodes: 780
ParallelNonNodalElements: Number of owned shared nodes: 360
ParallelNonNodalElements: Number of shared faces: 714
ParallelNonNodalElements: Number of owned shared faces: 28
ParallelNonNodalElements: Number of shared edges: 1493
ParallelNonNodalElements: Number of owned shared edges: 366
MAIN: -------------------------------------
AddEquationBasics: Setting up solver: mapcoordinate
Loading user function library: [StructuredMeshMapper]...[StructuredMeshMapper_Init]
Loading user function library: [StructuredMeshMapper]...[StructuredMeshMapper_bulk]
Loading user function library: [StructuredMeshMapper]...[StructuredMeshMapper]
AddEquationBasics: Setting up solver: projectef
Loading user function library: [StructuredProjectToPlane]...[StructuredProjectToPlane_Init]
Loading user function library: [StructuredProjectToPlane]...[StructuredProjectToPlane_bulk]
Loading user function library: [StructuredProjectToPlane]...[StructuredProjectToPlane]
AddEquationBasics: Setting up solver: navier-stokes
Loading user function library: [FlowSolve]...[FlowSolver_Init]
Loading user function library: [FlowSolve]...[FlowSolver_bulk]
Loading user function library: [FlowSolve]...[FlowSolver]
AddEquationBasics: Creating standard variable: flow solution[velocity:3 pressure:1]
OptimizeBandwidth: ---------------------------------------------------------
OptimizeBandwidth: Computing matrix structure for: navier-stokes...done.
OptimizeBandwidth: Half bandwidth without optimization: 992
OptimizeBandwidth: 
OptimizeBandwidth: Bandwidth Optimization ...done.
OptimizeBandwidth: Half bandwidth after optimization: 890
OptimizeBandwidth: ---------------------------------------------------------
AddEquationBasics: Setting up solver: cost
Loading user function library: [ElmerIceSolvers]...[Adjoint_CostDiscSolver_Init]
Loading user function library: [ElmerIceSolvers]...[Adjoint_CostDiscSolver_bulk]
Loading user function library: [ElmerIceSolvers]...[Adjoint_CostDiscSolver]
AddEquationBasics: Creating standard variable: costv
OptimizeBandwidth: ---------------------------------------------------------
OptimizeBandwidth: Computing matrix structure for: cost...done.
OptimizeBandwidth: Half bandwidth without optimization: 463
OptimizeBandwidth: ---------------------------------------------------------
AddEquationBasics: Setting up solver: adjoint
Loading user function library: [ElmerIceSolvers]...[Adjoint_LinearSolver_Init]
Loading user function library: [ElmerIceSolvers]...[Adjoint_LinearSolver_bulk]
Loading user function library: [ElmerIceSolvers]...[Adjoint_LinearSolver]
AddEquationBasics: Creating standard variable: adjoint
OptimizeBandwidth: ---------------------------------------------------------
OptimizeBandwidth: Computing matrix structure for: adjoint...done.
OptimizeBandwidth: Half bandwidth without optimization: 992
OptimizeBandwidth: 
OptimizeBandwidth: Bandwidth Optimization ...done.
OptimizeBandwidth: Half bandwidth after optimization: 890
OptimizeBandwidth: ---------------------------------------------------------
AddEquationBasics: Setting up solver: djdef
Loading user function library: [ElmerIceSolvers]...[AdjointStokes_GradientMuSolver_Init]
Loading user function library: [ElmerIceSolvers]...[AdjointStokes_GradientMuSolver_bulk]
Loading user function library: [ElmerIceSolvers]...[AdjointStokes_GradientMuSolver]
AddEquationBasics: Creating standard variable: djdef
OptimizeBandwidth: ---------------------------------------------------------
OptimizeBandwidth: Computing matrix structure for: djdef...done.
OptimizeBandwidth: Half bandwidth without optimization: 992
OptimizeBandwidth: 
OptimizeBandwidth: Bandwidth Optimization ...done.
OptimizeBandwidth: Half bandwidth after optimization: 890
OptimizeBandwidth: ---------------------------------------------------------
AddEquationBasics: Setting up solver: sumdjdef
Loading user function library: [StructuredProjectToPlane]...[StructuredProjectToPlane_Init]
Loading user function library: [StructuredProjectToPlane]...[StructuredProjectToPlane_bulk]
Loading user function library: [StructuredProjectToPlane]...[StructuredProjectToPlane]
AddEquationBasics: Setting up solver: djdef_reg
Loading user function library: [ElmerIceSolvers]...[Adjoint_CostRegSolver_Init]
Loading user function library: [ElmerIceSolvers]...[Adjoint_CostRegSolver_bulk]
Loading user function library: [ElmerIceSolvers]...[Adjoint_CostRegSolver]
AddEquationBasics: Creating standard variable: djdefreg
OptimizeBandwidth: ---------------------------------------------------------
OptimizeBandwidth: Computing matrix structure for: djdef_reg...done.
OptimizeBandwidth: Half bandwidth without optimization: 463
OptimizeBandwidth: ---------------------------------------------------------
AddEquationBasics: Setting up solver: optimize_m1qn3
Loading user function library: [ElmerIceSolvers]...[Optimize_m1qn3Parallel_Init]
Loading user function library: [ElmerIceSolvers]...[Optimize_m1qn3Parallel_bulk]
Loading user function library: [ElmerIceSolvers]...[Optimize_m1qn3Parallel]
AddEquationBasics: Creating global variable: optimize_m1qn3_var
AddEquationBasics: Setting up solver: emergence velocity
Loading user function library: [ElmerIceSolvers]...[GetEmergenceVelocity_Init]
Loading user function library: [ElmerIceSolvers]...[GetEmergenceVelocity_bulk]
Loading user function library: [ElmerIceSolvers]...[GetEmergenceVelocity]
AddEquationBasics: Creating standard variable: emergencevelocity
OptimizeBandwidth: ---------------------------------------------------------
OptimizeBandwidth: Computing matrix structure for: emergence velocity...done.
OptimizeBandwidth: Half bandwidth without optimization: 463
OptimizeBandwidth: 
OptimizeBandwidth: Bandwidth Optimization ...done.
OptimizeBandwidth: Half bandwidth after optimization: 37
OptimizeBandwidth: ---------------------------------------------------------
AddEquationBasics: Setting up solver: savematerials
Loading user function library: [SaveData]...[SaveMaterials_Init]
Loading user function library: [SaveData]...[SaveMaterials_bulk]
Loading user function library: [SaveData]...[SaveMaterials]
AddEquationBasics: Creating standard variable: dummyvar
OptimizeBandwidth: ---------------------------------------------------------
OptimizeBandwidth: Computing matrix structure for: savematerials...done.
OptimizeBandwidth: Half bandwidth without optimization: 992
OptimizeBandwidth: 
OptimizeBandwidth: Bandwidth Optimization ...done.
OptimizeBandwidth: Half bandwidth after optimization: 890
OptimizeBandwidth: ---------------------------------------------------------
AddEquationBasics: Setting up solver: projectef_last
Loading user function library: [StructuredProjectToPlane]...[StructuredProjectToPlane_Init]
Loading user function library: [StructuredProjectToPlane]...[StructuredProjectToPlane_bulk]
Loading user function library: [StructuredProjectToPlane]...[StructuredProjectToPlane]
AddEquationBasics: Setting up solver: resultoutput
Loading user function library: [ResultOutputSolve]...[ResultOutputSolver_Init]
Loading user function library: [ResultOutputSolve]...[ResultOutputSolver_bulk]
Loading user function library: [ResultOutputSolve]...[ResultOutputSolver]
Restart: Perfoming global Restart for:
LoadRestartFile: 
LoadRestartFile: --------------------------------------------
LoadRestartFile: Restart for mesh name:
LoadRestartFile: Restart for number of nodes: 7560
LoadRestartFile: Reading data from file: ../TG_S2/results/TG_SR_0528_Run2.result.0
LoadRestartFile: ASCII 3
LoadRestartFile: Reading ascii restart file version 3
LoadRestartFile: Total number of dofs in restart file: 53
LoadRestartFile: Creating variable: normal vector
LoadRestartFile: Creating variable: fw
LoadRestartFile: Creating variable: stress
LoadRestartFile: Creating variable: dvu
LoadRestartFile: Creating variable: proj_dvu
LoadRestartFile: Creating variable: groundedmask
LoadRestartFile: Creating variable: temperature
LoadRestartFile: Creating variable: fs lower
LoadRestartFile: Creating variable: fs lower residual
LoadRestartFile: Creating variable: referencefs lower
LoadRestartFile: Creating variable: fs upper
LoadRestartFile: Creating variable: fs upper residual
LoadRestartFile: Creating variable: referencefs upper
LoadRestartFile: Creating variable: vobs
LoadRestartFile: Creating variable: vx
LoadRestartFile: Creating variable: vy
LoadRestartFile: Creating variable: surface
LoadRestartFile: Creating variable: bed
LoadRestartFile: Creating variable: thickness
LoadRestartFile: Creating variable: beta
LoadRestartFile: Creating variable: smbref
LoadRestartFile: Creating variable: q_geo
LoadRestartFile: Creating variable: as_perp_apl
LoadRestartFile: Creating variable: temp_c
LoadRestartFile: Creating variable: proj_vobs
LoadRestartFile: Creating variable: proj_vx
LoadRestartFile: Creating variable: proj_vy
LoadRestartFile: Creating variable: proj_beta
LoadRestartFile: Creating variable: proj_smbref
LoadRestartFile: Creating variable: proj_bed
LoadRestartFile: Creating variable: proj_surf
LoadRestartFile: Creating variable: proj_thickness
LoadRestartFile: Creating variable: depth
LoadRestartFile: Creating variable: height
LoadRestartFile: Reading time sequence:    2.000E-01
LoadRestartFile: Reading variables on timestep: 1
LoadRestartFile: Reading time sequence:    2.000E-01
LoadRestartFile: Reading variables on timestep: 2
LoadRestartFile: Reading time sequence:    2.000E-01
LoadRestartFile: Reading variables on timestep: 3
LoadRestartFile: Reading time sequence:    2.001E-01
LoadRestartFile: Reading variables on timestep: 4
LoadRestartFile: Reading time sequence:    2.001E-01
LoadRestartFile: Reading variables on timestep: 5
LoadRestartFile: Reading time sequence:    2.001E-01
LoadRestartFile: Reading variables on timestep: 6
LoadRestartFile: Reading time sequence:    2.002E-01
LoadRestartFile: Reading variables on timestep: 7
LoadRestartFile: Reading time sequence:    2.002E-01
LoadRestartFile: Reading variables on timestep: 8
LoadRestartFile: Reading time sequence:    2.002E-01
LoadRestartFile: Reading variables on timestep: 9
LoadRestartFile: Reading time sequence:    2.003E-01
LoadRestartFile: Reading variables on timestep: 10
LoadRestartFile: Reading time sequence:    2.004E-01
LoadRestartFile: Reading variables on timestep: 11
LoadRestartFile: Reading time sequence:    2.005E-01
LoadRestartFile: Reading variables on timestep: 12
LoadRestartFile: Reading time sequence:    2.006E-01
LoadRestartFile: Reading variables on timestep: 13
LoadRestartFile: Reading time sequence:    2.007E-01
LoadRestartFile: Reading variables on timestep: 14
LoadRestartFile: Reading time sequence:    2.009E-01
LoadRestartFile: Reading variables on timestep: 15
LoadRestartFile: Reading time sequence:    2.010E-01
LoadRestartFile: Reading variables on timestep: 16
LoadRestartFile: Reading time sequence:    2.013E-01
LoadRestartFile: Reading variables on timestep: 17
LoadRestartFile: Reading time sequence:    2.015E-01
LoadRestartFile: Reading variables on timestep: 18
LoadRestartFile: Reading time sequence:    2.019E-01
LoadRestartFile: Reading variables on timestep: 19
LoadRestartFile: Reading time sequence:    2.022E-01
LoadRestartFile: Reading variables on timestep: 20
LoadRestartFile: Reading time sequence:    2.027E-01
LoadRestartFile: Reading variables on timestep: 21
LoadRestartFile: Reading time sequence:    2.033E-01
LoadRestartFile: Reading variables on timestep: 22
LoadRestartFile: Reading time sequence:    2.039E-01
LoadRestartFile: Reading variables on timestep: 23
LoadRestartFile: Reading time sequence:    2.047E-01
LoadRestartFile: Reading variables on timestep: 24
LoadRestartFile: Reading time sequence:    2.057E-01
LoadRestartFile: Reading variables on timestep: 25
LoadRestartFile: Reading time sequence:    2.068E-01
LoadRestartFile: Reading variables on timestep: 26
LoadRestartFile: Reading time sequence:    2.082E-01
LoadRestartFile: Reading variables on timestep: 27
LoadRestartFile: Reading time sequence:    2.098E-01
LoadRestartFile: Reading variables on timestep: 28
LoadRestartFile: Reading time sequence:    2.118E-01
LoadRestartFile: Reading variables on timestep: 29
LoadRestartFile: Reading time sequence:    2.142E-01
LoadRestartFile: Reading variables on timestep: 30
LoadRestartFile: Reading time sequence:    2.170E-01
LoadRestartFile: Reading variables on timestep: 31
LoadRestartFile: Reading time sequence:    2.204E-01
LoadRestartFile: Reading variables on timestep: 32
LoadRestartFile: Reading time sequence:    2.246E-01
LoadRestartFile: Reading variables on timestep: 33
LoadRestartFile: Reading time sequence:    2.295E-01
LoadRestartFile: Reading variables on timestep: 34
LoadRestartFile: Reading time sequence:    2.354E-01
LoadRestartFile: Reading variables on timestep: 35
LoadRestartFile: Reading time sequence:    2.425E-01
LoadRestartFile: Reading variables on timestep: 36
LoadRestartFile: Reading time sequence:    2.510E-01
LoadRestartFile: Reading variables on timestep: 37
LoadRestartFile: Reading time sequence:    2.612E-01
LoadRestartFile: Reading variables on timestep: 38
LoadRestartFile: Reading time sequence:    2.734E-01
LoadRestartFile: Reading variables on timestep: 39
LoadRestartFile: Reading time sequence:    2.881E-01
LoadRestartFile: Reading variables on timestep: 40
LoadRestartFile: Reading time sequence:    3.028E-01
LoadRestartFile: Reading variables on timestep: 41
LoadRestartFile: Reading time sequence:    3.175E-01
LoadRestartFile: Reading variables on timestep: 42
LoadRestartFile: Reading time sequence:    3.322E-01
LoadRestartFile: Reading variables on timestep: 43
LoadRestartFile: Reading time sequence:    3.469E-01
LoadRestartFile: Reading variables on timestep: 44
LoadRestartFile: Reading time sequence:    3.616E-01
LoadRestartFile: Reading variables on timestep: 45
LoadRestartFile: Reading time sequence:    3.763E-01
LoadRestartFile: Reading variables on timestep: 46
LoadRestartFile: Reading time sequence:    3.910E-01
LoadRestartFile: Reading variables on timestep: 47
LoadRestartFile: Reading time sequence:    4.057E-01
LoadRestartFile: Reading variables on timestep: 48
LoadRestartFile: Reading time sequence:    4.204E-01
LoadRestartFile: Reading variables on timestep: 49
LoadRestartFile: Reading time sequence:    4.351E-01
LoadRestartFile: Reading variables on timestep: 50
LoadRestartFile: Reading time sequence:    4.498E-01
LoadRestartFile: Reading variables on timestep: 51
LoadRestartFile: Reading time sequence:    4.645E-01
LoadRestartFile: Reading variables on timestep: 52
LoadRestartFile: Reading time sequence:    4.792E-01
LoadRestartFile: Reading variables on timestep: 53
LoadRestartFile: Reading time sequence:    4.939E-01
LoadRestartFile: Reading variables on timestep: 54
LoadRestartFile: Reading time sequence:    5.086E-01
LoadRestartFile: Reading variables on timestep: 55
LoadRestartFile: Reading time sequence:    5.233E-01
LoadRestartFile: Reading variables on timestep: 56
LoadRestartFile: Reading time sequence:    5.380E-01
LoadRestartFile: Reading variables on timestep: 57
LoadRestartFile: Reading time sequence:    5.527E-01
LoadRestartFile: Reading variables on timestep: 58
LoadRestartFile: Reading time sequence:    5.674E-01
LoadRestartFile: Reading variables on timestep: 59
LoadRestartFile: Reading time sequence:    5.821E-01
LoadRestartFile: Reading variables on timestep: 60
LoadRestartFile: Reading time sequence:    5.968E-01
LoadRestartFile: Reading variables on timestep: 61
LoadRestartFile: Reading time sequence:    6.115E-01
LoadRestartFile: Reading variables on timestep: 62
LoadRestartFile: Reading time sequence:    6.262E-01
LoadRestartFile: Reading variables on timestep: 63
LoadRestartFile: Reading time sequence:    6.409E-01
LoadRestartFile: Reading variables on timestep: 64
LoadRestartFile: Reading time sequence:    6.556E-01
LoadRestartFile: Reading variables on timestep: 65
LoadRestartFile: Reading time sequence:    6.703E-01
LoadRestartFile: Reading variables on timestep: 66
LoadRestartFile: Reading time sequence:    6.850E-01
LoadRestartFile: Reading variables on timestep: 67
LoadRestartFile: Reading time sequence:    6.997E-01
LoadRestartFile: Reading variables on timestep: 68
LoadRestartFile: Reading time sequence:    7.144E-01
LoadRestartFile: Reading variables on timestep: 69
LoadRestartFile: Reading time sequence:    7.291E-01
LoadRestartFile: Reading variables on timestep: 70
LoadRestartFile: Reading time sequence:    7.438E-01
LoadRestartFile: Reading variables on timestep: 71
LoadRestartFile: Reading time sequence:    7.585E-01
LoadRestartFile: Reading variables on timestep: 72
LoadRestartFile: Reading time sequence:    7.732E-01
LoadRestartFile: Reading variables on timestep: 73
LoadRestartFile: Reading time sequence:    7.878E-01
LoadRestartFile: Reading variables on timestep: 74
LoadRestartFile: Reading time sequence:    8.025E-01
LoadRestartFile: Reading variables on timestep: 75
LoadRestartFile: Reading time sequence:    8.172E-01
LoadRestartFile: Reading variables on timestep: 76
LoadRestartFile: Time spent for restart (s):      2.1510E+01
LoadRestartFile: All done
LoadRestartFile: --------------------------------------------
ElmerSolver: Number of timesteps to be saved: 300
SingleSolver: Attempting to call solver
SingleSolver: Solver Equation string is: mapcoordinate
StructuredMeshMapper: ---------------------------------------
StructuredMeshMapper: Performing mapping on a structured mesh
StructuredMeshMapper: ---------------------------------------
StructuredMeshMapper: Defaulting "Recompute Stabilization" to True.
DetectExtrudedStructure: Determining extruded structure
DetectExtrudedStructure: Unit vector of direction:   0.000   0.000   1.000
DetectExtrudedStructure:  Top and bottom pointer init time:    3.2400000000016860E-003
DetectExtrudedStructure: Top and bottom pointer init rounds: 14
DetectExtrudedStructure: Number of nodes at the top: 504
DetectExtrudedStructure: Number of nodes at the bottom: 504
StructuredMeshMapper: Adjusting upper surface to maintain minimum height to: 0.1100E+02
StructuredMeshMapper: > Correct Surface < in case of intersecting upper and lower surface
StructuredMeshMapper: There seems to be 105 (out of 7560) limited heights!
StructuredMeshMapper:  Active coordinate mapping time:    7.5400000000058753E-004
MeshStabParams: Computing stabilization parameters
MeshStabParams: Elapsed REAL time:     0.0086 (s)
Loading user function library: [StructuredMeshMapper]...[StructuredMeshMapper_post]
MAIN: 
MAIN: -------------------------------------
MAIN:  Steady state iteration:            1
MAIN: -------------------------------------
MAIN: 
SingleSolver: Attempting to call solver
SingleSolver: Solver Equation string is: projectef
StructuredProjectToPlane: ------------------------------------------
StructuredProjectToPlane: Performing projection on a structured mesh
StructuredProjectToPlane: ------------------------------------------
DetectExtrudedStructure: Determining extruded structure
DetectExtrudedStructure: Unit vector of direction:   0.000   0.000   1.000
DetectExtrudedStructure:  Top and bottom pointer init time:    3.2800000000001717E-003
DetectExtrudedStructure: Top and bottom pointer init rounds: 14
DetectExtrudedStructure: Number of nodes at the top: 504
DetectExtrudedStructure: Number of nodes at the bottom: 504
StructuredProjectToPlane:  Projection time:    0.0000000000000000
StructuredProjectToPlane: ------------------------------------------
Loading user function library: [StructuredProjectToPlane]...[StructuredProjectToPlane_post]
List_ToListMatrix: Matrix format changed from CRS to List
List_ToCRSMatrix: Number of entries in CRS matrix: 2143808
List_ToCRSMatrix: Matrix format changed from List to CRS
SingleSolver: Attempting to call solver
SingleSolver: Solver Equation string is: navier-stokes
FlowSolver: Solving the Navier-Stokes equations
FlowSolve: Enforcing relative pressure relaxation
FlowSolve: 
FlowSolve: 
FlowSolve: -------------------------------------
FlowSolve:  NAVIER-STOKES ITERATION           1
FlowSolve: -------------------------------------
FlowSolve: 
FlowSolve: Starting Assembly...
FlowSolve: Assembly:
: .Saving bulk values for: navier-stokes
FlowSolve: Assembly done
SeaPressure: Sea level =     0.0000
DefUtils::DefaultDirichletBCs: Setting Dirichlet boundary conditions
EnforceDirichletConditions: Applying Dirichlet conditions using scaled diagonal
EnforceDirichletConditions: Dirichlet conditions enforced for dofs: 55736
FlowSolve: Dirichlet conditions done
SolveLinearSystem: Assuming real valued linear system
SolveLinearSystem: Assuming parallel linear system
SolveLinearSystem: Parallel linear System Solver: direct
