7ELMER SOLVER (v 8.4) STARTED AT: 2021/04/28 15:42:56
ELMER SOLVER (v 8.4) STARTED AT: 2021/04/28 15:42:56
ELMER SOLVER (v 8.4) STARTED AT: 2021/04/28 15:42:56
ELMER SOLVER (v 8.4) STARTED AT: 2021/04/28 15:42:56
ELMER SOLVER (v 8.4) STARTED AT: 2021/04/28 15:42:56
ELMER SOLVER (v 8.4) STARTED AT: 2021/04/28 15:42:56
ELMER SOLVER (v 8.4) STARTED AT: 2021/04/28 15:42:56
ELMER SOLVER (v 8.4) STARTED AT: 2021/04/28 15:42:56
ELMER SOLVER (v 8.4) STARTED AT: 2021/04/28 15:42:56
ELMER SOLVER (v 8.4) STARTED AT: 2021/04/28 15:42:56
ELMER SOLVER (v 8.4) STARTED AT: 2021/04/28 15:42:56
ELMER SOLVER (v 8.4) STARTED AT: 2021/04/28 15:42:56
ELMER SOLVER (v 8.4) STARTED AT: 2021/04/28 15:42:56
ELMER SOLVER (v 8.4) STARTED AT: 2021/04/28 15:42:56
ELMER SOLVER (v 8.4) STARTED AT: 2021/04/28 15:42:56
ELMER SOLVER (v 8.4) STARTED AT: 2021/04/28 15:42:56
ELMER SOLVER (v 8.4) STARTED AT: 2021/04/28 15:42:56
ELMER SOLVER (v 8.4) STARTED AT: 2021/04/28 15:42:56
ELMER SOLVER (v 8.4) STARTED AT: 2021/04/28 15:42:56
ELMER SOLVER (v 8.4) STARTED AT: 2021/04/28 15:42:56
ELMER SOLVER (v 8.4) STARTED AT: 2021/04/28 15:42:56
ELMER SOLVER (v 8.4) STARTED AT: 2021/04/28 15:42:56
ELMER SOLVER (v 8.4) STARTED AT: 2021/04/28 15:42:56
ELMER SOLVER (v 8.4) STARTED AT: 2021/04/28 15:42:56
ELMER SOLVER (v 8.4) STARTED AT: 2021/04/28 15:42:56
ELMER SOLVER (v 8.4) STARTED AT: 2021/04/28 15:42:56
ELMER SOLVER (v 8.4) STARTED AT: 2021/04/28 15:42:56
ELMER SOLVER (v 8.4) STARTED AT: 2021/04/28 15:42:56
ELMER SOLVER (v 8.4) STARTED AT: 2021/04/28 15:42:56
ELMER SOLVER (v 8.4) STARTED AT: 2021/04/28 15:42:56
ELMER SOLVER (v 8.4) STARTED AT: 2021/04/28 15:42:56
ELMER SOLVER (v 8.4) STARTED AT: 2021/04/28 15:42:56
ELMER SOLVER (v 8.4) STARTED AT: 2021/04/28 15:42:56
ELMER SOLVER (v 8.4) STARTED AT: 2021/04/28 15:42:56
ELMER SOLVER (v 8.4) STARTED AT: 2021/04/28 15:42:56
ELMER SOLVER (v 8.4) STARTED AT: 2021/04/28 15:42:56
ELMER SOLVER (v 8.4) STARTED AT: 2021/04/28 15:42:56
ELMER SOLVER (v 8.4) STARTED AT: 2021/04/28 15:42:56
ELMER SOLVER (v 8.4) STARTED AT: 2021/04/28 15:42:56
ELMER SOLVER (v 8.4) STARTED AT: 2021/04/28 15:42:56
ELMER SOLVER (v 8.4) STARTED AT: 2021/04/28 15:42:56
ELMER SOLVER (v 8.4) STARTED AT: 2021/04/28 15:42:56
ELMER SOLVER (v 8.4) STARTED AT: 2021/04/28 15:42:56
ELMER SOLVER (v 8.4) STARTED AT: 2021/04/28 15:42:56
ELMER SOLVER (v 8.4) STARTED AT: 2021/04/28 15:42:56
ELMER SOLVER (v 8.4) STARTED AT: 2021/04/28 15:42:56
ELMER SOLVER (v 8.4) STARTED AT: 2021/04/28 15:42:56
ELMER SOLVER (v 8.4) STARTED AT: 2021/04/28 15:42:56
ELMER SOLVER (v 8.4) STARTED AT: 2021/04/28 15:42:56
ELMER SOLVER (v 8.4) STARTED AT: 2021/04/28 15:42:56
ELMER SOLVER (v 8.4) STARTED AT: 2021/04/28 15:42:56
ELMER SOLVER (v 8.4) STARTED AT: 2021/04/28 15:42:56
ELMER SOLVER (v 8.4) STARTED AT: 2021/04/28 15:42:56
ELMER SOLVER (v 8.4) STARTED AT: 2021/04/28 15:42:56
ELMER SOLVER (v 8.4) STARTED AT: 2021/04/28 15:42:56
ELMER SOLVER (v 8.4) STARTED AT: 2021/04/28 15:42:56
ELMER SOLVER (v 8.4) STARTED AT: 2021/04/28 15:42:56
ELMER SOLVER (v 8.4) STARTED AT: 2021/04/28 15:42:56
ELMER SOLVER (v 8.4) STARTED AT: 2021/04/28 15:42:56
ELMER SOLVER (v 8.4) STARTED AT: 2021/04/28 15:42:56
ELMER SOLVER (v 8.4) STARTED AT: 2021/04/28 15:42:56
ELMER SOLVER (v 8.4) STARTED AT: 2021/04/28 15:42:56
ELMER SOLVER (v 8.4) STARTED AT: 2021/04/28 15:42:56
ELMER SOLVER (v 8.4) STARTED AT: 2021/04/28 15:42:56
ELMER SOLVER (v 8.4) STARTED AT: 2021/04/28 15:42:56
ELMER SOLVER (v 8.4) STARTED AT: 2021/04/28 15:42:56
ELMER SOLVER (v 8.4) STARTED AT: 2021/04/28 15:42:56
ELMER SOLVER (v 8.4) STARTED AT: 2021/04/28 15:42:56
ELMER SOLVER (v 8.4) STARTED AT: 2021/04/28 15:42:56
ELMER SOLVER (v 8.4) STARTED AT: 2021/04/28 15:42:56
ELMER SOLVER (v 8.4) STARTED AT: 2021/04/28 15:42:56
ELMER SOLVER (v 8.4) STARTED AT: 2021/04/28 15:42:56
ELMER SOLVER (v 8.4) STARTED AT: 2021/04/28 15:42:56
ELMER SOLVER (v 8.4) STARTED AT: 2021/04/28 15:42:56
ELMER SOLVER (v 8.4) STARTED AT: 2021/04/28 15:42:56
ELMER SOLVER (v 8.4) STARTED AT: 2021/04/28 15:42:56
ELMER SOLVER (v 8.4) STARTED AT: 2021/04/28 15:42:56
ELMER SOLVER (v 8.4) STARTED AT: 2021/04/28 15:42:56
ELMER SOLVER (v 8.4) STARTED AT: 2021/04/28 15:42:56
ELMER SOLVER (v 8.4) STARTED AT: 2021/04/28 15:42:56
ELMER SOLVER (v 8.4) STARTED AT: 2021/04/28 15:42:56
ELMER SOLVER (v 8.4) STARTED AT: 2021/04/28 15:42:56
ELMER SOLVER (v 8.4) STARTED AT: 2021/04/28 15:42:56
ELMER SOLVER (v 8.4) STARTED AT: 2021/04/28 15:42:56
ELMER SOLVER (v 8.4) STARTED AT: 2021/04/28 15:42:56
ELMER SOLVER (v 8.4) STARTED AT: 2021/04/28 15:42:56
ELMER SOLVER (v 8.4) STARTED AT: 2021/04/28 15:42:56
ELMER SOLVER (v 8.4) STARTED AT: 2021/04/28 15:42:56
ELMER SOLVER (v 8.4) STARTED AT: 2021/04/28 15:42:56
ELMER SOLVER (v 8.4) STARTED AT: 2021/04/28 15:42:56
ELMER SOLVER (v 8.4) STARTED AT: 2021/04/28 15:42:56
ELMER SOLVER (v 8.4) STARTED AT: 2021/04/28 15:42:56
ELMER SOLVER (v 8.4) STARTED AT: 2021/04/28 15:42:56
ELMER SOLVER (v 8.4) STARTED AT: 2021/04/28 15:42:56
ELMER SOLVER (v 8.4) STARTED AT: 2021/04/28 15:42:56
ELMER SOLVER (v 8.4) STARTED AT: 2021/04/28 15:42:56
ELMER SOLVER (v 8.4) STARTED AT: 2021/04/28 15:42:56
ELMER SOLVER (v 8.4) STARTED AT: 2021/04/28 15:42:56
ELMER SOLVER (v 8.4) STARTED AT: 2021/04/28 15:42:56
ELMER SOLVER (v 8.4) STARTED AT: 2021/04/28 15:42:56
ELMER SOLVER (v 8.4) STARTED AT: 2021/04/28 15:42:56
ELMER SOLVER (v 8.4) STARTED AT: 2021/04/28 15:42:56
ELMER SOLVER (v 8.4) STARTED AT: 2021/04/28 15:42:56
ELMER SOLVER (v 8.4) STARTED AT: 2021/04/28 15:42:56
ELMER SOLVER (v 8.4) STARTED AT: 2021/04/28 15:42:56
ELMER SOLVER (v 8.4) STARTED AT: 2021/04/28 15:42:56
ELMER SOLVER (v 8.4) STARTED AT: 2021/04/28 15:42:56
ELMER SOLVER (v 8.4) STARTED AT: 2021/04/28 15:42:56
ELMER SOLVER (v 8.4) STARTED AT: 2021/04/28 15:42:56
ELMER SOLVER (v 8.4) STARTED AT: 2021/04/28 15:42:56
ELMER SOLVER (v 8.4) STARTED AT: 2021/04/28 15:42:56
ELMER SOLVER (v 8.4) STARTED AT: 2021/04/28 15:42:56
ELMER SOLVER (v 8.4) STARTED AT: 2021/04/28 15:42:56
ELMER SOLVER (v 8.4) STARTED AT: 2021/04/28 15:42:56
ELMER SOLVER (v 8.4) STARTED AT: 2021/04/28 15:42:56
ELMER SOLVER (v 8.4) STARTED AT: 2021/04/28 15:42:56
ELMER SOLVER (v 8.4) STARTED AT: 2021/04/28 15:42:56
ELMER SOLVER (v 8.4) STARTED AT: 2021/04/28 15:42:56
ELMER SOLVER (v 8.4) STARTED AT: 2021/04/28 15:42:56
ELMER SOLVER (v 8.4) STARTED AT: 2021/04/28 15:42:56
ELMER SOLVER (v 8.4) STARTED AT: 2021/04/28 15:42:56
ELMER SOLVER (v 8.4) STARTED AT: 2021/04/28 15:42:56
ELMER SOLVER (v 8.4) STARTED AT: 2021/04/28 15:42:56
ELMER SOLVER (v 8.4) STARTED AT: 2021/04/28 15:42:56
ELMER SOLVER (v 8.4) STARTED AT: 2021/04/28 15:42:56
ELMER SOLVER (v 8.4) STARTED AT: 2021/04/28 15:42:56
ELMER SOLVER (v 8.4) STARTED AT: 2021/04/28 15:42:56
ELMER SOLVER (v 8.4) STARTED AT: 2021/04/28 15:42:56
ParCommInit:  Initialize #PEs:          128
ParCommInit:  Initialize #PEs:          128
ParCommInit:  Initialize #PEs:          128
ParCommInit:  Initialize #PEs:          128
ParCommInit:  Initialize #PEs:          128
ParCommInit:  Initialize #PEs:          128
ParCommInit:  Initialize #PEs:          128
ParCommInit:  Initialize #PEs:          128
ParCommInit:  Initialize #PEs:          128
ParCommInit:  Initialize #PEs:          128
ParCommInit:  Initialize #PEs:          128
ParCommInit:  Initialize #PEs:          128
ParCommInit:  Initialize #PEs:          128
ParCommInit:  Initialize #PEs:          128
ParCommInit:  Initialize #PEs:          128
ParCommInit:  Initialize #PEs:          128
ParCommInit:  Initialize #PEs:          128
ParCommInit:  Initialize #PEs:          128
ParCommInit:  Initialize #PEs:          128
ParCommInit:  Initialize #PEs:          128
ParCommInit:  Initialize #PEs:          128
ParCommInit:  Initialize #PEs:          128
ParCommInit:  Initialize #PEs:          128
ParCommInit:  Initialize #PEs:          128
ParCommInit:  Initialize #PEs:          128
ParCommInit:  Initialize #PEs:          128
ParCommInit:  Initialize #PEs:          128
ParCommInit:  Initialize #PEs:          128
ParCommInit:  Initialize #PEs:          128
ParCommInit:  Initialize #PEs:          128
ParCommInit:  Initialize #PEs:          128
ParCommInit:  Initialize #PEs:          128
ParCommInit:  Initialize #PEs:          128
ParCommInit:  Initialize #PEs:          128
ParCommInit:  Initialize #PEs:          128
ParCommInit:  Initialize #PEs:          128
ParCommInit:  Initialize #PEs:          128
ParCommInit:  Initialize #PEs:          128
ParCommInit:  Initialize #PEs:          128
ParCommInit:  Initialize #PEs:          128
ParCommInit:  Initialize #PEs:          128
ParCommInit:  Initialize #PEs:          128
ParCommInit:  Initialize #PEs:          128
ParCommInit:  Initialize #PEs:          128
ParCommInit:  Initialize #PEs:          128
ParCommInit:  Initialize #PEs:          128
ParCommInit:  Initialize #PEs:          128
ParCommInit:  Initialize #PEs:          128
ParCommInit:  Initialize #PEs:          128
ParCommInit:  Initialize #PEs:          128
ParCommInit:  Initialize #PEs:          128
ParCommInit:  Initialize #PEs:          128
ParCommInit:  Initialize #PEs:          128
ParCommInit:  Initialize #PEs:          128
ParCommInit:  Initialize #PEs:          128
ParCommInit:  Initialize #PEs:          128
ParCommInit:  Initialize #PEs:          128
ParCommInit:  Initialize #PEs:          128
ParCommInit:  Initialize #PEs:          128
ParCommInit:  Initialize #PEs:          128
ParCommInit:  Initialize #PEs:          128
ParCommInit:  Initialize #PEs:          128
ParCommInit:  Initialize #PEs:          128
ParCommInit:  Initialize #PEs:          128
ParCommInit:  Initialize #PEs:          128
ParCommInit:  Initialize #PEs:          128
ParCommInit:  Initialize #PEs:          128
ParCommInit:  Initialize #PEs:          128
ParCommInit:  Initialize #PEs:          128
ParCommInit:  Initialize #PEs:          128
ParCommInit:  Initialize #PEs:          128
ParCommInit:  Initialize #PEs:          128
ParCommInit:  Initialize #PEs:          128
ParCommInit:  Initialize #PEs:          128
ParCommInit:  Initialize #PEs:          128
ParCommInit:  Initialize #PEs:          128
ParCommInit:  Initialize #PEs:          128
ParCommInit:  Initialize #PEs:          128
ParCommInit:  Initialize #PEs:          128
ParCommInit:  Initialize #PEs:          128
ParCommInit:  Initialize #PEs:          128
ParCommInit:  Initialize #PEs:          128
ParCommInit:  Initialize #PEs:          128
ParCommInit:  Initialize #PEs:          128
ParCommInit:  Initialize #PEs:          128
ParCommInit:  Initialize #PEs:          128
ParCommInit:  Initialize #PEs:          128
ParCommInit:  Initialize #PEs:          128
ParCommInit:  Initialize #PEs:          128
ParCommInit:  Initialize #PEs:          128
ParCommInit:  Initialize #PEs:          128
ParCommInit:  Initialize #PEs:          128
ParCommInit:  Initialize #PEs:          128
ParCommInit:  Initialize #PEs:          128
ParCommInit:  Initialize #PEs:          128
ParCommInit:  Initialize #PEs:          128
ParCommInit:  Initialize #PEs:          128
ParCommInit:  Initialize #PEs:          128
ParCommInit:  Initialize #PEs:          128
ParCommInit:  Initialize #PEs:          128
ParCommInit:  Initialize #PEs:          128
ParCommInit:  Initialize #PEs:          128
ParCommInit:  Initialize #PEs:          128
ParCommInit:  Initialize #PEs:          128
ParCommInit:  Initialize #PEs:          128
ParCommInit:  Initialize #PEs:          128
ParCommInit:  Initialize #PEs:          128
ParCommInit:  Initialize #PEs:          128
ParCommInit:  Initialize #PEs:          128
ParCommInit:  Initialize #PEs:          128
ParCommInit:  Initialize #PEs:          128
ParCommInit:  Initialize #PEs:          128
ParCommInit:  Initialize #PEs:          128
ParCommInit:  Initialize #PEs:          128
ParCommInit:  Initialize #PEs:          128
ParCommInit:  Initialize #PEs:          128
ParCommInit:  Initialize #PEs:          128
ParCommInit:  Initialize #PEs:          128
ParCommInit:  Initialize #PEs:          128
ParCommInit:  Initialize #PEs:          128
ParCommInit:  Initialize #PEs:          128
ParCommInit:  Initialize #PEs:          128
ParCommInit:  Initialize #PEs:          128
ParCommInit:  Initialize #PEs:          128
ParCommInit:  Initialize #PEs:          128
ParCommInit:  Initialize #PEs:          128
ParCommInit:  Initialize #PEs:          128
ParCommInit:  Initialize #PEs:          128
MAIN: 
MAIN: =============================================================
MAIN: ElmerSolver finite element software, Welcome!
MAIN: This program is free software licensed under (L)GPL
MAIN: Copyright 1st April 1995 - , CSC - IT Center for Science Ltd.
MAIN: Webpage http://www.csc.fi/elmer, Email elmeradm@csc.fi
MAIN: Version: 8.4 (Rev: 3c3a578, Compiled: 2020-12-30)
MAIN:  Running in parallel using 128 tasks.
MAIN:  Running with just one thread per task.
MAIN:  HYPRE library linked in.
MAIN:  MUMPS library linked in.
MAIN:  Lua interpreted linked in.
MAIN: =============================================================
LoadInputFile: Reading only "Run Control" section
MAIN: 
MAIN: 
MAIN: -------------------------------------
MAIN: Reading Model: copy_TG_inverse_S3.sif
LoadInputFile: Scanning input file: copy_TG_inverse_S3.sif
LoadInputFile: Scanning only size info
LoadInputFile: First time visiting
LoadInputFile: Reading base load of sif file
LoadInputFile: Loading input file: copy_TG_inverse_S3.sif
LoadInputFile: Reading base load of sif file
Model Input:  Unlisted keyword: [water density] in section: [constants]
Model Input:  Unlisted keyword: [fs lower] in section: [initial condition 1]
Model Input:  Unlisted keyword: [fs upper] in section: [initial condition 1]
Model Input:  Unlisted keyword: [sea level] in section: [material 1]
Model Input:  Unlisted keyword: [limit temperature] in section: [material 1]
Model Input:  Unlisted keyword: [top surface variable name] in section: [solver 2]
Model Input:  Unlisted keyword: [bottom surface variable name] in section: [solver 2]
Model Input:  Unlisted keyword: [correct surface] in section: [solver 2]
Model Input:  Unlisted keyword: [minimum height] in section: [solver 2]
Model Input:  Unlisted keyword: [toler] in section: [solver 4]
Model Input:  Unlisted keyword: [bedrock variable] in section: [solver 4]
Loading user function library: [ElmerIceUSF]...[SeaPressure]
Model Input:  Unlisted keyword: [compute sea pressure] in section: [boundary condition 2]
Model Input:  Unlisted keyword: [test contact tolerance] in section: [boundary condition 3]
Model Input:  Unlisted keyword: [height] in section: [boundary condition 3]
Model Input:  Unlisted keyword: [fs lower] in section: [boundary condition 3]
Loading user function library: [ElmerIceUSF]...[TenPowerA_masked]
Loading user function library: [ElmerIceUSF]...[TenPowerA_masked]
Model Input:  Unlisted keyword: [slip coefficient derivative] in section: [boundary condition 3]
Loading user function library: [ElmerIceUSF]...[TenPowerA_d_Masked]
Loading user function library: [ElmerIceUSF]...[SeaSpring]
Model Input:  Unlisted keyword: [compute sea spring] in section: [boundary condition 3]
Model Input:  Unlisted keyword: [depth] in section: [boundary condition 4]
Model Input:  Unlisted keyword: [fs upper] in section: [boundary condition 4]
LoadInputFile: Number of BCs: 4
LoadInputFile: Number of Body Forces: 1
LoadInputFile: Number of Initial Conditions: 1
LoadInputFile: Number of Materials: 1
LoadInputFile: Number of Equations: 1
LoadInputFile: Number of Solvers: 6
LoadInputFile: Number of Bodies: 1
Loading user function library: [DummySolver]...[DummySolver_Init0]
Loading user function library: [StructuredMeshMapper]...[StructuredMeshMapper_Init0]
Loading user function library: [StructuredProjectToPlane]...[StructuredProjectToPlane_Init0]
Loading user function library: [ElmerIceSolvers]...[GroundedSolver_Init0]
Loading user function library: [ResultOutputSolve]...[ResultOutputSolver_Init0]
LoadMesh: Starting
ElmerAsciiMesh: Performing step: 1
LoadMesh: Base mesh name: ./../mesh2D_TG_refpart/
InitializeMesh: Number of nodes in mesh: 365
InitializeMesh: Number of bulk elements in mesh: 649
InitializeMesh: Number of boundary elements in mesh: 16
ElmerAsciiMesh: Performing step: 2
SetMeshDimension: Dimension of mesh is: 2
SetMeshDimension: Max dimension of mesh is: 2
ElmerAsciiMesh: Performing step: 3
ElmerAsciiMesh: Performing step: 4
LoadMesh: Performing node mapping
LoadMesh: Remapping boundaries
LoadMesh: Minimum initial boundary index: 2
LoadMesh: Maximum initial boundary index: 2
ElmerAsciiMesh: Performing step: 5
ElmerAsciiMesh: Performing step: 6
LoadMesh: Loading mesh done
LoadMesh: Elapsed REAL time:     0.0918 (s)
MeshStabParams: Computing stabilization parameters
MeshStabParams: Elapsed REAL time:     0.0002 (s)
UnitSegmentDivision: Creating functional division
MeshExtrude: First Extruded BC set to: 3
MeshExtrude: Number of new BCs for layers: 1
SetMeshDimension: Dimension of mesh is: 3
SetMeshDimension: Max dimension of mesh is: 3
NonNodalElements: Requested elements require creation of edges
FindMeshEdges: Determining faces in 3D mesh
FindMeshEdges: Determining edges in 3D mesh
MAIN: -------------------------------------
AddEquationBasics: Setting up solver: dummyroutine
Loading user function library: [DummySolver]...[DummySolver_Init]
Loading user function library: [DummySolver]...[DummySolver_bulk]
Loading user function library: [DummySolver]...[DummySolver]
WARNING:: AddEquation: > Timestepping method < defaulted to > Implicit Euler <
WARNING:: AddEquation: > Timestepping method < defaulted to > Implicit Euler <
WARNING:: AddEquation: > Timestepping method < defaulted to > Implicit Euler <
WARNING:: AddEquation: > Timestepping method < defaulted to > Implicit Euler <
WARNING:: AddEquation: > Timestepping method < defaulted to > Implicit Euler <
WARNING:: AddEquation: > Timestepping method < defaulted to > Implicit Euler <
WARNING:: AddEquation: > Timestepping method < defaulted to > Implicit Euler <
WARNING:: AddEquation: > Timestepping method < defaulted to > Implicit Euler <
WARNING:: AddEquation: > Timestepping method < defaulted to > Implicit Euler <
WARNING:: AddEquation: > Timestepping method < defaulted to > Implicit Euler <
WARNING:: AddEquation: > Timestepping method < defaulted to > Implicit Euler <
WARNING:: AddEquation: > Timestepping method < defaulted to > Implicit Euler <
WARNING:: AddEquation: > Timestepping method < defaulted to > Implicit Euler <
WARNING:: AddEquation: > Timestepping method < defaulted to > Implicit Euler <
WARNING:: AddEquation: > Timestepping method < defaulted to > Implicit Euler <
WARNING:: AddEquation: > Timestepping method < defaulted to > Implicit Euler <
WARNING:: AddEquation: > Timestepping method < defaulted to > Implicit Euler <
WARNING:: AddEquation: > Timestepping method < defaulted to > Implicit Euler <
WARNING:: AddEquation: > Timestepping method < defaulted to > Implicit Euler <
WARNING:: AddEquation: > Timestepping method < defaulted to > Implicit Euler <
WARNING:: AddEquation: > Timestepping method < defaulted to > Implicit Euler <
WARNING:: AddEquation: > Timestepping method < defaulted to > Implicit Euler <
WARNING:: AddEquation: > Timestepping method < defaulted to > Implicit Euler <
WARNING:: AddEquation: > Timestepping method < defaulted to > Implicit Euler <
WARNING:: AddEquation: > Timestepping method < defaulted to > Implicit Euler <
WARNING:: AddEquation: > Timestepping method < defaulted to > Implicit Euler <
WARNING:: AddEquation: > Timestepping method < defaulted to > Implicit Euler <
WARNING:: AddEquation: > Timestepping method < defaulted to > Implicit Euler <
WARNING:: AddEquation: > Timestepping method < defaulted to > Implicit Euler <
WARNING:: AddEquation: > Timestepping method < defaulted to > Implicit Euler <
WARNING:: AddEquation: > Timestepping method < defaulted to > Implicit Euler <
WARNING:: AddEquation: > Timestepping method < defaulted to > Implicit Euler <
WARNING:: AddEquation: > Timestepping method < defaulted to > Implicit Euler <
WARNING:: AddEquation: > Timestepping method < defaulted to > Implicit Euler <
WARNING:: AddEquation: > Timestepping method < defaulted to > Implicit Euler <
WARNING:: AddEquation: > Timestepping method < defaulted to > Implicit Euler <
WARNING:: AddEquation: > Timestepping method < defaulted to > Implicit Euler <
WARNING:: AddEquation: > Timestepping method < defaulted to > Implicit Euler <
WARNING:: AddEquation: > Timestepping method < defaulted to > Implicit Euler <
WARNING:: AddEquation: > Timestepping method < defaulted to > Implicit Euler <
WARNING:: AddEquation: > Timestepping method < defaulted to > Implicit Euler <
WARNING:: AddEquation: > Timestepping method < defaulted to > Implicit Euler <
WARNING:: AddEquation: > Timestepping method < defaulted to > Implicit Euler <
WARNING:: AddEquation: > Timestepping method < defaulted to > Implicit Euler <
WARNING:: AddEquation: > Timestepping method < defaulted to > Implicit Euler <
WARNING:: AddEquation: > Timestepping method < defaulted to > Implicit Euler <
WARNING:: AddEquation: > Timestepping method < defaulted to > Implicit Euler <
WARNING:: AddEquation: > Timestepping method < defaulted to > Implicit Euler <
WARNING:: AddEquation: > Timestepping method < defaulted to > Implicit Euler <
WARNING:: AddEquation: > Timestepping method < defaulted to > Implicit Euler <
WARNING:: AddEquation: > Timestepping method < defaulted to > Implicit Euler <
WARNING:: AddEquation: > Timestepping method < defaulted to > Implicit Euler <
WARNING:: AddEquation: > Timestepping method < defaulted to > Implicit Euler <
WARNING:: AddEquation: > Timestepping method < defaulted to > Implicit Euler <
WARNING:: AddEquation: > Timestepping method < defaulted to > Implicit Euler <
WARNING:: AddEquation: > Timestepping method < defaulted to > Implicit Euler <
WARNING:: AddEquation: > Timestepping method < defaulted to > Implicit Euler <
WARNING:: AddEquation: > Timestepping method < defaulted to > Implicit Euler <
WARNING:: AddEquation: > Timestepping method < defaulted to > Implicit Euler <
WARNING:: AddEquation: > Timestepping method < defaulted to > Implicit Euler <
WARNING:: AddEquation: > Timestepping method < defaulted to > Implicit Euler <
WARNING:: AddEquation: > Timestepping method < defaulted to > Implicit Euler <
WARNING:: AddEquation: > Timestepping method < defaulted to > Implicit Euler <
WARNING:: AddEquation: > Timestepping method < defaulted to > Implicit Euler <
WARNING:: AddEquation: > Timestepping method < defaulted to > Implicit Euler <
WARNING:: AddEquation: > Timestepping method < defaulted to > Implicit Euler <
AddEquationBasics: Creating standard variable: dummyv
WARNING:: AddEquation: > Timestepping method < defaulted to > Implicit Euler <
WARNING:: AddEquation: > Timestepping method < defaulted to > Implicit Euler <
WARNING:: AddEquation: > Timestepping method < defaulted to > Implicit Euler <
WARNING:: AddEquation: > Timestepping method < defaulted to > Implicit Euler <
WARNING:: AddEquation: > Timestepping method < defaulted to > Implicit Euler <
WARNING:: AddEquation: > Timestepping method < defaulted to > Implicit Euler <
WARNING:: AddEquation: > Timestepping method < defaulted to > Implicit Euler <
WARNING:: AddEquation: > Timestepping method < defaulted to > Implicit Euler <
WARNING:: AddEquation: > Timestepping method < defaulted to > Implicit Euler <
WARNING:: AddEquation: > Timestepping method < defaulted to > Implicit Euler <
WARNING:: AddEquation: > Timestepping method < defaulted to > Implicit Euler <
WARNING:: AddEquation: > Timestepping method < defaulted to > Implicit Euler <
WARNING:: AddEquation: > Timestepping method < defaulted to > Implicit Euler <
WARNING:: AddEquation: > Timestepping method < defaulted to > Implicit Euler <
WARNING:: AddEquation: > Timestepping method < defaulted to > Implicit Euler <
WARNING:: AddEquation: > Timestepping method < defaulted to > Implicit Euler <
WARNING:: AddEquation: > Timestepping method < defaulted to > Implicit Euler <
WARNING:: AddEquation: > Timestepping method < defaulted to > Implicit Euler <
WARNING:: AddEquation: > Timestepping method < defaulted to > Implicit Euler <
WARNING:: AddEquation: > Timestepping method < defaulted to > Implicit Euler <
WARNING:: AddEquation: > Timestepping method < defaulted to > Implicit Euler <
WARNING:: AddEquation: > Timestepping method < defaulted to > Implicit Euler <
WARNING:: AddEquation: > Timestepping method < defaulted to > Implicit Euler <
WARNING:: AddEquation: > Timestepping method < defaulted to > Implicit Euler <
WARNING:: AddEquation: > Timestepping method < defaulted to > Implicit Euler <
WARNING:: AddEquation: > Timestepping method < defaulted to > Implicit Euler <
WARNING:: AddEquation: > Timestepping method < defaulted to > Implicit Euler <
WARNING:: AddEquation: > Timestepping method < defaulted to > Implicit Euler <
WARNING:: AddEquation: > Timestepping method < defaulted to > Implicit Euler <
WARNING:: AddEquation: > Timestepping method < defaulted to > Implicit Euler <
WARNING:: AddEquation: > Timestepping method < defaulted to > Implicit Euler <
WARNING:: AddEquation: > Timestepping method < defaulted to > Implicit Euler <
WARNING:: AddEquation: > Timestepping method < defaulted to > Implicit Euler <
WARNING:: AddEquation: > Timestepping method < defaulted to > Implicit Euler <
WARNING:: AddEquation: > Timestepping method < defaulted to > Implicit Euler <
WARNING:: AddEquation: > Timestepping method < defaulted to > Implicit Euler <
WARNING:: AddEquation: > Timestepping method < defaulted to > Implicit Euler <
WARNING:: AddEquation: > Timestepping method < defaulted to > Implicit Euler <
WARNING:: AddEquation: > Timestepping method < defaulted to > Implicit Euler <
WARNING:: AddEquation: > Timestepping method < defaulted to > Implicit Euler <
WARNING:: AddEquation: > Timestepping method < defaulted to > Implicit Euler <
WARNING:: AddEquation: > Timestepping method < defaulted to > Implicit Euler <
WARNING:: AddEquation: > Timestepping method < defaulted to > Implicit Euler <
WARNING:: AddEquation: > Timestepping method < defaulted to > Implicit Euler <
WARNING:: AddEquation: > Timestepping method < defaulted to > Implicit Euler <
WARNING:: AddEquation: > Timestepping method < defaulted to > Implicit Euler <
WARNING:: AddEquation: > Timestepping method < defaulted to > Implicit Euler <
WARNING:: AddEquation: > Timestepping method < defaulted to > Implicit Euler <
WARNING:: AddEquation: > Timestepping method < defaulted to > Implicit Euler <
WARNING:: AddEquation: > Timestepping method < defaulted to > Implicit Euler <
WARNING:: AddEquation: > Timestepping method < defaulted to > Implicit Euler <
WARNING:: AddEquation: > Timestepping method < defaulted to > Implicit Euler <
WARNING:: AddEquation: > Timestepping method < defaulted to > Implicit Euler <
WARNING:: AddEquation: > Timestepping method < defaulted to > Implicit Euler <
WARNING:: AddEquation: > Timestepping method < defaulted to > Implicit Euler <
WARNING:: AddEquation: > Timestepping method < defaulted to > Implicit Euler <
WARNING:: AddEquation: > Timestepping method < defaulted to > Implicit Euler <
WARNING:: AddEquation: > Timestepping method < defaulted to > Implicit Euler <
WARNING:: AddEquation: > Timestepping method < defaulted to > Implicit Euler <
WARNING:: AddEquation: > Timestepping method < defaulted to > Implicit Euler <
WARNING:: AddEquation: > Timestepping method < defaulted to > Implicit Euler <
WARNING:: AddEquation: > Timestepping method < defaulted to > Implicit Euler <
OptimizeBandwidth: ---------------------------------------------------------
OptimizeBandwidth: Computing matrix structure for: dummyroutine...done.
OptimizeBandwidth: Half bandwidth without optimization: 719
OptimizeBandwidth: 
OptimizeBandwidth: Bandwidth Optimization ...done.
OptimizeBandwidth: Half bandwidth after optimization: 667
OptimizeBandwidth: ---------------------------------------------------------
AddEquationBasics: Setting up solver: mapcoordinate_init
Loading user function library: [StructuredMeshMapper]...[StructuredMeshMapper_Init]
Loading user function library: [StructuredMeshMapper]...[StructuredMeshMapper_bulk]
Loading user function library: [StructuredMeshMapper]...[StructuredMeshMapper]
WARNING:: AddEquation: > Timestepping method < defaulted to > Implicit Euler <
WARNING:: AddEquation: > Timestepping method < defaulted to > Implicit Euler <
WARNING:: AddEquation: > Timestepping method < defaulted to > Implicit Euler <
WARNING:: AddEquation: > Timestepping method < defaulted to > Implicit Euler <
WARNING:: AddEquation: > Timestepping method < defaulted to > Implicit Euler <
WARNING:: AddEquation: > Timestepping method < defaulted to > Implicit Euler <
WARNING:: AddEquation: > Timestepping method < defaulted to > Implicit Euler <
WARNING:: AddEquation: > Timestepping method < defaulted to > Implicit Euler <
WARNING:: AddEquation: > Timestepping method < defaulted to > Implicit Euler <
WARNING:: AddEquation: > Timestepping method < defaulted to > Implicit Euler <
WARNING:: AddEquation: > Timestepping method < defaulted to > Implicit Euler <
WARNING:: AddEquation: > Timestepping method < defaulted to > Implicit Euler <
WARNING:: AddEquation: > Timestepping method < defaulted to > Implicit Euler <
WARNING:: AddEquation: > Timestepping method < defaulted to > Implicit Euler <
WARNING:: AddEquation: > Timestepping method < defaulted to > Implicit Euler <
WARNING:: AddEquation: > Timestepping method < defaulted to > Implicit Euler <
WARNING:: AddEquation: > Timestepping method < defaulted to > Implicit Euler <
WARNING:: AddEquation: > Timestepping method < defaulted to > Implicit Euler <
WARNING:: AddEquation: > Timestepping method < defaulted to > Implicit Euler <
WARNING:: AddEquation: > Timestepping method < defaulted to > Implicit Euler <
WARNING:: AddEquation: > Timestepping method < defaulted to > Implicit Euler <
WARNING:: AddEquation: > Timestepping method < defaulted to > Implicit Euler <
WARNING:: AddEquation: > Timestepping method < defaulted to > Implicit Euler <
WARNING:: AddEquation: > Timestepping method < defaulted to > Implicit Euler <
WARNING:: AddEquation: > Timestepping method < defaulted to > Implicit Euler <
WARNING:: AddEquation: > Timestepping method < defaulted to > Implicit Euler <
WARNING:: AddEquation: > Timestepping method < defaulted to > Implicit Euler <
WARNING:: AddEquation: > Timestepping method < defaulted to > Implicit Euler <
WARNING:: AddEquation: > Timestepping method < defaulted to > Implicit Euler <
WARNING:: AddEquation: > Timestepping method < defaulted to > Implicit Euler <
WARNING:: AddEquation: > Timestepping method < defaulted to > Implicit Euler <
WARNING:: AddEquation: > Timestepping method < defaulted to > Implicit Euler <
WARNING:: AddEquation: > Timestepping method < defaulted to > Implicit Euler <
WARNING:: AddEquation: > Timestepping method < defaulted to > Implicit Euler <
WARNING:: AddEquation: > Timestepping method < defaulted to > Implicit Euler <
WARNING:: AddEquation: > Timestepping method < defaulted to > Implicit Euler <
WARNING:: AddEquation: > Timestepping method < defaulted to > Implicit Euler <
WARNING:: AddEquation: > Timestepping method < defaulted to > Implicit Euler <
WARNING:: AddEquation: > Timestepping method < defaulted to > Implicit Euler <
WARNING:: AddEquation: > Timestepping method < defaulted to > Implicit Euler <
WARNING:: AddEquation: > Timestepping method < defaulted to > Implicit Euler <
WARNING:: AddEquation: > Timestepping method < defaulted to > Implicit Euler <
WARNING:: AddEquation: > Timestepping method < defaulted to > Implicit Euler <
WARNING:: AddEquation: > Timestepping method < defaulted to > Implicit Euler <
WARNING:: AddEquation: > Timestepping method < defaulted to > Implicit Euler <
WARNING:: AddEquation: > Timestepping method < defaulted to > Implicit Euler <
WARNING:: AddEquation: > Timestepping method < defaulted to > Implicit Euler <
WARNING:: AddEquation: > Timestepping method < defaulted to > Implicit Euler <
WARNING:: AddEquation: > Timestepping method < defaulted to > Implicit Euler <
WARNING:: AddEquation: > Timestepping method < defaulted to > Implicit Euler <
WARNING:: AddEquation: > Timestepping method < defaulted to > Implicit Euler <
WARNING:: AddEquation: > Timestepping method < defaulted to > Implicit Euler <
WARNING:: AddEquation: > Timestepping method < defaulted to > Implicit Euler <
WARNING:: AddEquation: > Timestepping method < defaulted to > Implicit Euler <
WARNING:: AddEquation: > Timestepping method < defaulted to > Implicit Euler <
WARNING:: AddEquation: > Timestepping method < defaulted to > Implicit Euler <
WARNING:: AddEquation: > Timestepping method < defaulted to > Implicit Euler <
WARNING:: AddEquation: > Timestepping method < defaulted to > Implicit Euler <
WARNING:: AddEquation: > Timestepping method < defaulted to > Implicit Euler <
WARNING:: AddEquation: > Timestepping method < defaulted to > Implicit Euler <
WARNING:: AddEquation: > Timestepping method < defaulted to > Implicit Euler <
AddEquationBasics: Setting up solver: heightdepth
Loading user function library: [StructuredProjectToPlane]...[StructuredProjectToPlane_Init]
WARNING:: AddEquation: > Timestepping method < defaulted to > Implicit Euler <
WARNING:: AddEquation: > Timestepping method < defaulted to > Implicit Euler <
WARNING:: AddEquation: > Timestepping method < defaulted to > Implicit Euler <
WARNING:: AddEquation: > Timestepping method < defaulted to > Implicit Euler <
WARNING:: AddEquation: > Timestepping method < defaulted to > Implicit Euler <
WARNING:: AddEquation: > Timestepping method < defaulted to > Implicit Euler <
WARNING:: AddEquation: > Timestepping method < defaulted to > Implicit Euler <
WARNING:: AddEquation: > Timestepping method < defaulted to > Implicit Euler <
WARNING:: AddEquation: > Timestepping method < defaulted to > Implicit Euler <
WARNING:: AddEquation: > Timestepping method < defaulted to > Implicit Euler <
WARNING:: AddEquation: > Timestepping method < defaulted to > Implicit Euler <
WARNING:: AddEquation: > Timestepping method < defaulted to > Implicit Euler <
WARNING:: AddEquation: > Timestepping method < defaulted to > Implicit Euler <
WARNING:: AddEquation: > Timestepping method < defaulted to > Implicit Euler <
WARNING:: AddEquation: > Timestepping method < defaulted to > Implicit Euler <
WARNING:: AddEquation: > Timestepping method < defaulted to > Implicit Euler <
WARNING:: AddEquation: > Timestepping method < defaulted to > Implicit Euler <
WARNING:: AddEquation: > Timestepping method < defaulted to > Implicit Euler <
WARNING:: AddEquation: > Timestepping method < defaulted to > Implicit Euler <
WARNING:: AddEquation: > Timestepping method < defaulted to > Implicit Euler <
WARNING:: AddEquation: > Timestepping method < defaulted to > Implicit Euler <
WARNING:: AddEquation: > Timestepping method < defaulted to > Implicit Euler <
WARNING:: AddEquation: > Timestepping method < defaulted to > Implicit Euler <
WARNING:: AddEquation: > Timestepping method < defaulted to > Implicit Euler <
WARNING:: AddEquation: > Timestepping method < defaulted to > Implicit Euler <
WARNING:: AddEquation: > Timestepping method < defaulted to > Implicit Euler <
WARNING:: AddEquation: > Timestepping method < defaulted to > Implicit Euler <
WARNING:: AddEquation: > Timestepping method < defaulted to > Implicit Euler <
WARNING:: AddEquation: > Timestepping method < defaulted to > Implicit Euler <
WARNING:: AddEquation: > Timestepping method < defaulted to > Implicit Euler <
WARNING:: AddEquation: > Timestepping method < defaulted to > Implicit Euler <
WARNING:: AddEquation: > Timestepping method < defaulted to > Implicit Euler <
WARNING:: AddEquation: > Timestepping method < defaulted to > Implicit Euler <
WARNING:: AddEquation: > Timestepping method < defaulted to > Implicit Euler <
WARNING:: AddEquation: > Timestepping method < defaulted to > Implicit Euler <
WARNING:: AddEquation: > Timestepping method < defaulted to > Implicit Euler <
WARNING:: AddEquation: > Timestepping method < defaulted to > Implicit Euler <
WARNING:: AddEquation: > Timestepping method < defaulted to > Implicit Euler <
WARNING:: AddEquation: > Timestepping method < defaulted to > Implicit Euler <
WARNING:: AddEquation: > Timestepping method < defaulted to > Implicit Euler <
WARNING:: AddEquation: > Timestepping method < defaulted to > Implicit Euler <
WARNING:: AddEquation: > Timestepping method < defaulted to > Implicit Euler <
WARNING:: AddEquation: > Timestepping method < defaulted to > Implicit Euler <
WARNING:: AddEquation: > Timestepping method < defaulted to > Implicit Euler <
WARNING:: AddEquation: > Timestepping method < defaulted to > Implicit Euler <
WARNING:: AddEquation: > Timestepping method < defaulted to > Implicit Euler <
WARNING:: AddEquation: > Timestepping method < defaulted to > Implicit Euler <
WARNING:: AddEquation: > Timestepping method < defaulted to > Implicit Euler <
WARNING:: AddEquation: > Timestepping method < defaulted to > Implicit Euler <
WARNING:: AddEquation: > Timestepping method < defaulted to > Implicit Euler <
WARNING:: AddEquation: > Timestepping method < defaulted to > Implicit Euler <
WARNING:: AddEquation: > Timestepping method < defaulted to > Implicit Euler <
WARNING:: AddEquation: > Timestepping method < defaulted to > Implicit Euler <
WARNING:: AddEquation: > Timestepping method < defaulted to > Implicit Euler <
WARNING:: AddEquation: > Timestepping method < defaulted to > Implicit Euler <
WARNING:: AddEquation: > Timestepping method < defaulted to > Implicit Euler <
WARNING:: AddEquation: > Timestepping method < defaulted to > Implicit Euler <
WARNING:: AddEquation: > Timestepping method < defaulted to > Implicit Euler <
WARNING:: AddEquation: > Timestepping method < defaulted to > Implicit Euler <
WARNING:: AddEquation: > Timestepping method < defaulted to > Implicit Euler <
WARNING:: AddEquation: > Timestepping method < defaulted to > Implicit Euler <
WARNING:: AddEquation: > Timestepping method < defaulted to > Implicit Euler <
WARNING:: AddEquation: > Timestepping method < defaulted to > Implicit Euler <
WARNING:: AddEquation: > Timestepping method < defaulted to > Implicit Euler <
WARNING:: AddEquation: > Timestepping method < defaulted to > Implicit Euler <
WARNING:: AddEquation: > Timestepping method < defaulted to > Implicit Euler <
WARNING:: AddEquation: > Timestepping method < defaulted to > Implicit Euler <
Loading user function library: [StructuredProjectToPlane]...[StructuredProjectToPlane_bulk]
Loading user function library: [StructuredProjectToPlane]...[StructuredProjectToPlane]
WARNING:: AddEquation: > Timestepping method < defaulted to > Implicit Euler <
WARNING:: AddEquation: > Timestepping method < defaulted to > Implicit Euler <
WARNING:: AddEquation: > Timestepping method < defaulted to > Implicit Euler <
WARNING:: AddEquation: > Timestepping method < defaulted to > Implicit Euler <
WARNING:: AddEquation: > Timestepping method < defaulted to > Implicit Euler <
WARNING:: AddEquation: > Timestepping method < defaulted to > Implicit Euler <
WARNING:: AddEquation: > Timestepping method < defaulted to > Implicit Euler <
WARNING:: AddEquation: > Timestepping method < defaulted to > Implicit Euler <
WARNING:: AddEquation: > Timestepping method < defaulted to > Implicit Euler <
WARNING:: AddEquation: > Timestepping method < defaulted to > Implicit Euler <
WARNING:: AddEquation: > Timestepping method < defaulted to > Implicit Euler <
WARNING:: AddEquation: > Timestepping method < defaulted to > Implicit Euler <
WARNING:: AddEquation: > Timestepping method < defaulted to > Implicit Euler <
WARNING:: AddEquation: > Timestepping method < defaulted to > Implicit Euler <
WARNING:: AddEquation: > Timestepping method < defaulted to > Implicit Euler <
WARNING:: AddEquation: > Timestepping method < defaulted to > Implicit Euler <
WARNING:: AddEquation: > Timestepping method < defaulted to > Implicit Euler <
WARNING:: AddEquation: > Timestepping method < defaulted to > Implicit Euler <
WARNING:: AddEquation: > Timestepping method < defaulted to > Implicit Euler <
WARNING:: AddEquation: > Timestepping method < defaulted to > Implicit Euler <
WARNING:: AddEquation: > Timestepping method < defaulted to > Implicit Euler <
WARNING:: AddEquation: > Timestepping method < defaulted to > Implicit Euler <
WARNING:: AddEquation: > Timestepping method < defaulted to > Implicit Euler <
WARNING:: AddEquation: > Timestepping method < defaulted to > Implicit Euler <
WARNING:: AddEquation: > Timestepping method < defaulted to > Implicit Euler <
WARNING:: AddEquation: > Timestepping method < defaulted to > Implicit Euler <
WARNING:: AddEquation: > Timestepping method < defaulted to > Implicit Euler <
WARNING:: AddEquation: > Timestepping method < defaulted to > Implicit Euler <
WARNING:: AddEquation: > Timestepping method < defaulted to > Implicit Euler <
WARNING:: AddEquation: > Timestepping method < defaulted to > Implicit Euler <
WARNING:: AddEquation: > Timestepping method < defaulted to > Implicit Euler <
WARNING:: AddEquation: > Timestepping method < defaulted to > Implicit Euler <
WARNING:: AddEquation: > Timestepping method < defaulted to > Implicit Euler <
WARNING:: AddEquation: > Timestepping method < defaulted to > Implicit Euler <
WARNING:: AddEquation: > Timestepping method < defaulted to > Implicit Euler <
WARNING:: AddEquation: > Timestepping method < defaulted to > Implicit Euler <
WARNING:: AddEquation: > Timestepping method < defaulted to > Implicit Euler <
WARNING:: AddEquation: > Timestepping method < defaulted to > Implicit Euler <
WARNING:: AddEquation: > Timestepping method < defaulted to > Implicit Euler <
WARNING:: AddEquation: > Timestepping method < defaulted to > Implicit Euler <
WARNING:: AddEquation: > Timestepping method < defaulted to > Implicit Euler <
WARNING:: AddEquation: > Timestepping method < defaulted to > Implicit Euler <
WARNING:: AddEquation: > Timestepping method < defaulted to > Implicit Euler <
WARNING:: AddEquation: > Timestepping method < defaulted to > Implicit Euler <
WARNING:: AddEquation: > Timestepping method < defaulted to > Implicit Euler <
WARNING:: AddEquation: > Timestepping method < defaulted to > Implicit Euler <
WARNING:: AddEquation: > Timestepping method < defaulted to > Implicit Euler <
WARNING:: AddEquation: > Timestepping method < defaulted to > Implicit Euler <
WARNING:: AddEquation: > Timestepping method < defaulted to > Implicit Euler <
WARNING:: AddEquation: > Timestepping method < defaulted to > Implicit Euler <
WARNING:: AddEquation: > Timestepping method < defaulted to > Implicit Euler <
WARNING:: AddEquation: > Timestepping method < defaulted to > Implicit Euler <
WARNING:: AddEquation: > Timestepping method < defaulted to > Implicit Euler <
WARNING:: AddEquation: > Timestepping method < defaulted to > Implicit Euler <
WARNING:: AddEquation: > Timestepping method < defaulted to > Implicit Euler <
WARNING:: AddEquation: > Timestepping method < defaulted to > Implicit Euler <
WARNING:: AddEquation: > Timestepping method < defaulted to > Implicit Euler <
WARNING:: AddEquation: > Timestepping method < defaulted to > Implicit Euler <
AddEquationBasics: Setting up solver: groundedmask
WARNING:: AddEquation: > Timestepping method < defaulted to > Implicit Euler <
WARNING:: AddEquation: > Timestepping method < defaulted to > Implicit Euler <
WARNING:: AddEquation: > Timestepping method < defaulted to > Implicit Euler <
WARNING:: AddEquation: > Timestepping method < defaulted to > Implicit Euler <
WARNING:: AddEquation: > Timestepping method < defaulted to > Implicit Euler <
WARNING:: AddEquation: > Timestepping method < defaulted to > Implicit Euler <
WARNING:: AddEquation: > Timestepping method < defaulted to > Implicit Euler <
WARNING:: AddEquation: > Timestepping method < defaulted to > Implicit Euler <
WARNING:: AddEquation: > Timestepping method < defaulted to > Implicit Euler <
WARNING:: AddEquation: > Timestepping method < defaulted to > Implicit Euler <
WARNING:: AddEquation: > Timestepping method < defaulted to > Implicit Euler <
WARNING:: AddEquation: > Timestepping method < defaulted to > Implicit Euler <
WARNING:: AddEquation: > Timestepping method < defaulted to > Implicit Euler <
WARNING:: AddEquation: > Timestepping method < defaulted to > Implicit Euler <
WARNING:: AddEquation: > Timestepping method < defaulted to > Implicit Euler <
WARNING:: AddEquation: > Timestepping method < defaulted to > Implicit Euler <
Loading user function library: [ElmerIceSolvers]...[GroundedSolver_Init]
WARNING:: AddEquation: > Timestepping method < defaulted to > Implicit Euler <
WARNING:: AddEquation: > Timestepping method < defaulted to > Implicit Euler <
WARNING:: AddEquation: > Timestepping method < defaulted to > Implicit Euler <
WARNING:: AddEquation: > Timestepping method < defaulted to > Implicit Euler <
WARNING:: AddEquation: > Timestepping method < defaulted to > Implicit Euler <
WARNING:: AddEquation: > Timestepping method < defaulted to > Implicit Euler <
WARNING:: AddEquation: > Timestepping method < defaulted to > Implicit Euler <
WARNING:: AddEquation: > Timestepping method < defaulted to > Implicit Euler <
WARNING:: AddEquation: > Timestepping method < defaulted to > Implicit Euler <
WARNING:: AddEquation: > Timestepping method < defaulted to > Implicit Euler <
WARNING:: AddEquation: > Timestepping method < defaulted to > Implicit Euler <
WARNING:: AddEquation: > Timestepping method < defaulted to > Implicit Euler <
WARNING:: AddEquation: > Timestepping method < defaulted to > Implicit Euler <
WARNING:: AddEquation: > Timestepping method < defaulted to > Implicit Euler <
WARNING:: AddEquation: > Timestepping method < defaulted to > Implicit Euler <
WARNING:: AddEquation: > Timestepping method < defaulted to > Implicit Euler <
WARNING:: AddEquation: > Timestepping method < defaulted to > Implicit Euler <
WARNING:: AddEquation: > Timestepping method < defaulted to > Implicit Euler <
WARNING:: AddEquation: > Timestepping method < defaulted to > Implicit Euler <
WARNING:: AddEquation: > Timestepping method < defaulted to > Implicit Euler <
WARNING:: AddEquation: > Timestepping method < defaulted to > Implicit Euler <
WARNING:: AddEquation: > Timestepping method < defaulted to > Implicit Euler <
WARNING:: AddEquation: > Timestepping method < defaulted to > Implicit Euler <
WARNING:: AddEquation: > Timestepping method < defaulted to > Implicit Euler <
WARNING:: AddEquation: > Timestepping method < defaulted to > Implicit Euler <
WARNING:: AddEquation: > Timestepping method < defaulted to > Implicit Euler <
WARNING:: AddEquation: > Timestepping method < defaulted to > Implicit Euler <
WARNING:: AddEquation: > Timestepping method < defaulted to > Implicit Euler <
WARNING:: AddEquation: > Timestepping method < defaulted to > Implicit Euler <
WARNING:: AddEquation: > Timestepping method < defaulted to > Implicit Euler <
WARNING:: AddEquation: > Timestepping method < defaulted to > Implicit Euler <
WARNING:: AddEquation: > Timestepping method < defaulted to > Implicit Euler <
WARNING:: AddEquation: > Timestepping method < defaulted to > Implicit Euler <
WARNING:: AddEquation: > Timestepping method < defaulted to > Implicit Euler <
WARNING:: AddEquation: > Timestepping method < defaulted to > Implicit Euler <
WARNING:: AddEquation: > Timestepping method < defaulted to > Implicit Euler <
WARNING:: AddEquation: > Timestepping method < defaulted to > Implicit Euler <
WARNING:: AddEquation: > Timestepping method < defaulted to > Implicit Euler <
WARNING:: AddEquation: > Timestepping method < defaulted to > Implicit Euler <
WARNING:: AddEquation: > Timestepping method < defaulted to > Implicit Euler <
WARNING:: AddEquation: > Timestepping method < defaulted to > Implicit Euler <
WARNING:: AddEquation: > Timestepping method < defaulted to > Implicit Euler <
WARNING:: AddEquation: > Timestepping method < defaulted to > Implicit Euler <
WARNING:: AddEquation: > Timestepping method < defaulted to > Implicit Euler <
WARNING:: AddEquation: > Timestepping method < defaulted to > Implicit Euler <
WARNING:: AddEquation: > Timestepping method < defaulted to > Implicit Euler <
WARNING:: AddEquation: > Timestepping method < defaulted to > Implicit Euler <
WARNING:: AddEquation: > Timestepping method < defaulted to > Implicit Euler <
WARNING:: AddEquation: > Timestepping method < defaulted to > Implicit Euler <
WARNING:: AddEquation: > Timestepping method < defaulted to > Implicit Euler <
WARNING:: AddEquation: > Timestepping method < defaulted to > Implicit Euler <
WARNING:: AddEquation: > Timestepping method < defaulted to > Implicit Euler <
WARNING:: AddEquation: > Timestepping method < defaulted to > Implicit Euler <
WARNING:: AddEquation: > Timestepping method < defaulted to > Implicit Euler <
Loading user function library: [ElmerIceSolvers]...[GroundedSolver_bulk]
Loading user function library: [ElmerIceSolvers]...[GroundedSolver]
WARNING:: AddEquation: > Timestepping method < defaulted to > Implicit Euler <
WARNING:: AddEquation: > Timestepping method < defaulted to > Implicit Euler <
WARNING:: AddEquation: > Timestepping method < defaulted to > Implicit Euler <
WARNING:: AddEquation: > Timestepping method < defaulted to > Implicit Euler <
WARNING:: AddEquation: > Timestepping method < defaulted to > Implicit Euler <
WARNING:: AddEquation: > Timestepping method < defaulted to > Implicit Euler <
WARNING:: AddEquation: > Timestepping method < defaulted to > Implicit Euler <
WARNING:: AddEquation: > Timestepping method < defaulted to > Implicit Euler <
WARNING:: AddEquation: > Timestepping method < defaulted to > Implicit Euler <
WARNING:: AddEquation: > Timestepping method < defaulted to > Implicit Euler <
WARNING:: AddEquation: > Timestepping method < defaulted to > Implicit Euler <
WARNING:: AddEquation: > Timestepping method < defaulted to > Implicit Euler <
WARNING:: AddEquation: > Timestepping method < defaulted to > Implicit Euler <
WARNING:: AddEquation: > Timestepping method < defaulted to > Implicit Euler <
WARNING:: AddEquation: > Timestepping method < defaulted to > Implicit Euler <
WARNING:: AddEquation: > Timestepping method < defaulted to > Implicit Euler <
WARNING:: AddEquation: > Timestepping method < defaulted to > Implicit Euler <
WARNING:: AddEquation: > Timestepping method < defaulted to > Implicit Euler <
WARNING:: AddEquation: > Timestepping method < defaulted to > Implicit Euler <
WARNING:: AddEquation: > Timestepping method < defaulted to > Implicit Euler <
WARNING:: AddEquation: > Timestepping method < defaulted to > Implicit Euler <
WARNING:: AddEquation: > Timestepping method < defaulted to > Implicit Euler <
WARNING:: AddEquation: > Timestepping method < defaulted to > Implicit Euler <
WARNING:: AddEquation: > Timestepping method < defaulted to > Implicit Euler <
WARNING:: AddEquation: > Timestepping method < defaulted to > Implicit Euler <
WARNING:: AddEquation: > Timestepping method < defaulted to > Implicit Euler <
WARNING:: AddEquation: > Timestepping method < defaulted to > Implicit Euler <
WARNING:: AddEquation: > Timestepping method < defaulted to > Implicit Euler <
WARNING:: AddEquation: > Timestepping method < defaulted to > Implicit Euler <
WARNING:: AddEquation: > Timestepping method < defaulted to > Implicit Euler <
WARNING:: AddEquation: > Timestepping method < defaulted to > Implicit Euler <
WARNING:: AddEquation: > Timestepping method < defaulted to > Implicit Euler <
WARNING:: AddEquation: > Timestepping method < defaulted to > Implicit Euler <
WARNING:: AddEquation: > Timestepping method < defaulted to > Implicit Euler <
WARNING:: AddEquation: > Timestepping method < defaulted to > Implicit Euler <
WARNING:: AddEquation: > Timestepping method < defaulted to > Implicit Euler <
WARNING:: AddEquation: > Timestepping method < defaulted to > Implicit Euler <
WARNING:: AddEquation: > Timestepping method < defaulted to > Implicit Euler <
WARNING:: AddEquation: > Timestepping method < defaulted to > Implicit Euler <
WARNING:: AddEquation: > Timestepping method < defaulted to > Implicit Euler <
WARNING:: AddEquation: > Timestepping method < defaulted to > Implicit Euler <
WARNING:: AddEquation: > Timestepping method < defaulted to > Implicit Euler <
WARNING:: AddEquation: > Timestepping method < defaulted to > Implicit Euler <
WARNING:: AddEquation: > Timestepping method < defaulted to > Implicit Euler <
WARNING:: AddEquation: > Timestepping method < defaulted to > Implicit Euler <
WARNING:: AddEquation: > Timestepping method < defaulted to > Implicit Euler <
WARNING:: AddEquation: > Timestepping method < defaulted to > Implicit Euler <
AddEquationBasics: Creating standard variable: groundedmask
WARNING:: AddEquation: > Timestepping method < defaulted to > Implicit Euler <
WARNING:: AddEquation: > Timestepping method < defaulted to > Implicit Euler <
WARNING:: AddEquation: > Timestepping method < defaulted to > Implicit Euler <
WARNING:: AddEquation: > Timestepping method < defaulted to > Implicit Euler <
WARNING:: AddEquation: > Timestepping method < defaulted to > Implicit Euler <
WARNING:: AddEquation: > Timestepping method < defaulted to > Implicit Euler <
WARNING:: AddEquation: > Timestepping method < defaulted to > Implicit Euler <
WARNING:: AddEquation: > Timestepping method < defaulted to > Implicit Euler <
WARNING:: AddEquation: > Timestepping method < defaulted to > Implicit Euler <
WARNING:: AddEquation: > Timestepping method < defaulted to > Implicit Euler <
WARNING:: AddEquation: > Timestepping method < defaulted to > Implicit Euler <
WARNING:: AddEquation: > Timestepping method < defaulted to > Implicit Euler <
WARNING:: AddEquation: > Timestepping method < defaulted to > Implicit Euler <
WARNING:: AddEquation: > Timestepping method < defaulted to > Implicit Euler <
WARNING:: AddEquation: > Timestepping method < defaulted to > Implicit Euler <
WARNING:: AddEquation: > Timestepping method < defaulted to > Implicit Euler <
WARNING:: AddEquation: > Timestepping method < defaulted to > Implicit Euler <
WARNING:: AddEquation: > Timestepping method < defaulted to > Implicit Euler <
WARNING:: AddEquation: > Timestepping method < defaulted to > Implicit Euler <
WARNING:: AddEquation: > Timestepping method < defaulted to > Implicit Euler <
WARNING:: AddEquation: > Timestepping method < defaulted to > Implicit Euler <
WARNING:: AddEquation: > Timestepping method < defaulted to > Implicit Euler <
WARNING:: AddEquation: > Timestepping method < defaulted to > Implicit Euler <
WARNING:: AddEquation: > Timestepping method < defaulted to > Implicit Euler <
WARNING:: AddEquation: > Timestepping method < defaulted to > Implicit Euler <
WARNING:: AddEquation: > Timestepping method < defaulted to > Implicit Euler <
WARNING:: AddEquation: > Timestepping method < defaulted to > Implicit Euler <
WARNING:: AddEquation: > Timestepping method < defaulted to > Implicit Euler <
WARNING:: AddEquation: > Timestepping method < defaulted to > Implicit Euler <
WARNING:: AddEquation: > Timestepping method < defaulted to > Implicit Euler <
WARNING:: AddEquation: > Timestepping method < defaulted to > Implicit Euler <
WARNING:: AddEquation: > Timestepping method < defaulted to > Implicit Euler <
WARNING:: AddEquation: > Timestepping method < defaulted to > Implicit Euler <
WARNING:: AddEquation: > Timestepping method < defaulted to > Implicit Euler <
WARNING:: AddEquation: > Timestepping method < defaulted to > Implicit Euler <
WARNING:: AddEquation: > Timestepping method < defaulted to > Implicit Euler <
WARNING:: AddEquation: > Timestepping method < defaulted to > Implicit Euler <
WARNING:: AddEquation: > Timestepping method < defaulted to > Implicit Euler <
WARNING:: AddEquation: > Timestepping method < defaulted to > Implicit Euler <
WARNING:: AddEquation: > Timestepping method < defaulted to > Implicit Euler <
WARNING:: AddEquation: > Timestepping method < defaulted to > Implicit Euler <
WARNING:: AddEquation: > Timestepping method < defaulted to > Implicit Euler <
WARNING:: AddEquation: > Timestepping method < defaulted to > Implicit Euler <
WARNING:: AddEquation: > Timestepping method < defaulted to > Implicit Euler <
WARNING:: AddEquation: > Timestepping method < defaulted to > Implicit Euler <
WARNING:: AddEquation: > Timestepping method < defaulted to > Implicit Euler <
WARNING:: AddEquation: > Timestepping method < defaulted to > Implicit Euler <
WARNING:: AddEquation: > Timestepping method < defaulted to > Implicit Euler <
WARNING:: AddEquation: > Timestepping method < defaulted to > Implicit Euler <
WARNING:: AddEquation: > Timestepping method < defaulted to > Implicit Euler <
WARNING:: AddEquation: > Timestepping method < defaulted to > Implicit Euler <
WARNING:: AddEquation: > Timestepping method < defaulted to > Implicit Euler <
WARNING:: AddEquation: > Timestepping method < defaulted to > Implicit Euler <
WARNING:: AddEquation: > Timestepping method < defaulted to > Implicit Euler <
WARNING:: AddEquation: > Timestepping method < defaulted to > Implicit Euler <
WARNING:: AddEquation: > Timestepping method < defaulted to > Implicit Euler <
WARNING:: AddEquation: > Timestepping method < defaulted to > Implicit Euler <
WARNING:: AddEquation: > Timestepping method < defaulted to > Implicit Euler <
WARNING:: AddEquation: > Timestepping method < defaulted to > Implicit Euler <
WARNING:: AddEquation: > Timestepping method < defaulted to > Implicit Euler <
WARNING:: AddEquation: > Timestepping method < defaulted to > Implicit Euler <
WARNING:: AddEquation: > Timestepping method < defaulted to > Implicit Euler <
WARNING:: AddEquation: > Timestepping method < defaulted to > Implicit Euler <
WARNING:: AddEquation: > Timestepping method < defaulted to > Implicit Euler <
WARNING:: AddEquation: > Timestepping method < defaulted to > Implicit Euler <
WARNING:: AddEquation: > Timestepping method < defaulted to > Implicit Euler <
WARNING:: AddEquation: > Timestepping method < defaulted to > Implicit Euler <
WARNING:: AddEquation: > Timestepping method < defaulted to > Implicit Euler <
WARNING:: AddEquation: > Timestepping method < defaulted to > Implicit Euler <
WARNING:: AddEquation: > Timestepping method < defaulted to > Implicit Euler <
WARNING:: AddEquation: > Timestepping method < defaulted to > Implicit Euler <
WARNING:: AddEquation: > Timestepping method < defaulted to > Implicit Euler <
WARNING:: AddEquation: > Timestepping method < defaulted to > Implicit Euler <
WARNING:: AddEquation: > Timestepping method < defaulted to > Implicit Euler <
WARNING:: AddEquation: > Timestepping method < defaulted to > Implicit Euler <
WARNING:: AddEquation: > Timestepping method < defaulted to > Implicit Euler <
WARNING:: AddEquation: > Timestepping method < defaulted to > Implicit Euler <
WARNING:: AddEquation: > Timestepping method < defaulted to > Implicit Euler <
WARNING:: AddEquation: > Timestepping method < defaulted to > Implicit Euler <
WARNING:: AddEquation: > Timestepping method < defaulted to > Implicit Euler <
WARNING:: AddEquation: > Timestepping method < defaulted to > Implicit Euler <
OptimizeBandwidth: ---------------------------------------------------------
OptimizeBandwidth: Computing matrix structure for: groundedmask...done.
OptimizeBandwidth: Half bandwidth without optimization: 719
OptimizeBandwidth: 
OptimizeBandwidth: Bandwidth Optimization ...done.
OptimizeBandwidth: Half bandwidth after optimization: 667
OptimizeBandwidth: ---------------------------------------------------------
AddEquationBasics: Setting up solver: navier-stokes
Loading user function library: [FlowSolve]...[FlowSolver_Init]
Loading user function library: [FlowSolve]...[FlowSolver_bulk]
Loading user function library: [FlowSolve]...[FlowSolver]
WARNING:: AddEquation: > Timestepping method < defaulted to > Implicit Euler <
WARNING:: AddEquation: > Timestepping method < defaulted to > Implicit Euler <
WARNING:: AddEquation: > Timestepping method < defaulted to > Implicit Euler <
WARNING:: AddEquation: > Timestepping method < defaulted to > Implicit Euler <
WARNING:: AddEquation: > Timestepping method < defaulted to > Implicit Euler <
WARNING:: AddEquation: > Timestepping method < defaulted to > Implicit Euler <
WARNING:: AddEquation: > Timestepping method < defaulted to > Implicit Euler <
WARNING:: AddEquation: > Timestepping method < defaulted to > Implicit Euler <
WARNING:: AddEquation: > Timestepping method < defaulted to > Implicit Euler <
WARNING:: AddEquation: > Timestepping method < defaulted to > Implicit Euler <
WARNING:: AddEquation: > Timestepping method < defaulted to > Implicit Euler <
WARNING:: AddEquation: > Timestepping method < defaulted to > Implicit Euler <
WARNING:: AddEquation: > Timestepping method < defaulted to > Implicit Euler <
WARNING:: AddEquation: > Timestepping method < defaulted to > Implicit Euler <
WARNING:: AddEquation: > Timestepping method < defaulted to > Implicit Euler <
WARNING:: AddEquation: > Timestepping method < defaulted to > Implicit Euler <
WARNING:: AddEquation: > Timestepping method < defaulted to > Implicit Euler <
WARNING:: AddEquation: > Timestepping method < defaulted to > Implicit Euler <
WARNING:: AddEquation: > Timestepping method < defaulted to > Implicit Euler <
WARNING:: AddEquation: > Timestepping method < defaulted to > Implicit Euler <
WARNING:: AddEquation: > Timestepping method < defaulted to > Implicit Euler <
WARNING:: AddEquation: > Timestepping method < defaulted to > Implicit Euler <
WARNING:: AddEquation: > Timestepping method < defaulted to > Implicit Euler <
WARNING:: AddEquation: > Timestepping method < defaulted to > Implicit Euler <
WARNING:: AddEquation: > Timestepping method < defaulted to > Implicit Euler <
WARNING:: AddEquation: > Timestepping method < defaulted to > Implicit Euler <
WARNING:: AddEquation: > Timestepping method < defaulted to > Implicit Euler <
WARNING:: AddEquation: > Timestepping method < defaulted to > Implicit Euler <
WARNING:: AddEquation: > Timestepping method < defaulted to > Implicit Euler <
WARNING:: AddEquation: > Timestepping method < defaulted to > Implicit Euler <
WARNING:: AddEquation: > Timestepping method < defaulted to > Implicit Euler <
WARNING:: AddEquation: > Timestepping method < defaulted to > Implicit Euler <
WARNING:: AddEquation: > Timestepping method < defaulted to > Implicit Euler <
WARNING:: AddEquation: > Timestepping method < defaulted to > Implicit Euler <
WARNING:: AddEquation: > Timestepping method < defaulted to > Implicit Euler <
WARNING:: AddEquation: > Timestepping method < defaulted to > Implicit Euler <
WARNING:: AddEquation: > Timestepping method < defaulted to > Implicit Euler <
WARNING:: AddEquation: > Timestepping method < defaulted to > Implicit Euler <
WARNING:: AddEquation: > Timestepping method < defaulted to > Implicit Euler <
WARNING:: AddEquation: > Timestepping method < defaulted to > Implicit Euler <
WARNING:: AddEquation: > Timestepping method < defaulted to > Implicit Euler <
WARNING:: AddEquation: > Timestepping method < defaulted to > Implicit Euler <
AddEquationBasics: Creating standard variable: flow solution[velocity:3 pressure:1]
WARNING:: AddEquation: > Timestepping method < defaulted to > Implicit Euler <
WARNING:: AddEquation: > Timestepping method < defaulted to > Implicit Euler <
WARNING:: AddEquation: > Timestepping method < defaulted to > Implicit Euler <
WARNING:: AddEquation: > Timestepping method < defaulted to > Implicit Euler <
WARNING:: AddEquation: > Timestepping method < defaulted to > Implicit Euler <
WARNING:: AddEquation: > Timestepping method < defaulted to > Implicit Euler <
WARNING:: AddEquation: > Timestepping method < defaulted to > Implicit Euler <
WARNING:: AddEquation: > Timestepping method < defaulted to > Implicit Euler <
WARNING:: AddEquation: > Timestepping method < defaulted to > Implicit Euler <
WARNING:: AddEquation: > Timestepping method < defaulted to > Implicit Euler <
WARNING:: AddEquation: > Timestepping method < defaulted to > Implicit Euler <
WARNING:: AddEquation: > Timestepping method < defaulted to > Implicit Euler <
WARNING:: AddEquation: > Timestepping method < defaulted to > Implicit Euler <
WARNING:: AddEquation: > Timestepping method < defaulted to > Implicit Euler <
WARNING:: AddEquation: > Timestepping method < defaulted to > Implicit Euler <
WARNING:: AddEquation: > Timestepping method < defaulted to > Implicit Euler <
WARNING:: AddEquation: > Timestepping method < defaulted to > Implicit Euler <
WARNING:: AddEquation: > Timestepping method < defaulted to > Implicit Euler <
WARNING:: AddEquation: > Timestepping method < defaulted to > Implicit Euler <
WARNING:: AddEquation: > Timestepping method < defaulted to > Implicit Euler <
WARNING:: AddEquation: > Timestepping method < defaulted to > Implicit Euler <
WARNING:: AddEquation: > Timestepping method < defaulted to > Implicit Euler <
WARNING:: AddEquation: > Timestepping method < defaulted to > Implicit Euler <
WARNING:: AddEquation: > Timestepping method < defaulted to > Implicit Euler <
WARNING:: AddEquation: > Timestepping method < defaulted to > Implicit Euler <
WARNING:: AddEquation: > Timestepping method < defaulted to > Implicit Euler <
WARNING:: AddEquation: > Timestepping method < defaulted to > Implicit Euler <
WARNING:: AddEquation: > Timestepping method < defaulted to > Implicit Euler <
WARNING:: AddEquation: > Timestepping method < defaulted to > Implicit Euler <
WARNING:: AddEquation: > Timestepping method < defaulted to > Implicit Euler <
WARNING:: AddEquation: > Timestepping method < defaulted to > Implicit Euler <
WARNING:: AddEquation: > Timestepping method < defaulted to > Implicit Euler <
WARNING:: AddEquation: > Timestepping method < defaulted to > Implicit Euler <
WARNING:: AddEquation: > Timestepping method < defaulted to > Implicit Euler <
WARNING:: AddEquation: > Timestepping method < defaulted to > Implicit Euler <
WARNING:: AddEquation: > Timestepping method < defaulted to > Implicit Euler <
WARNING:: AddEquation: > Timestepping method < defaulted to > Implicit Euler <
WARNING:: AddEquation: > Timestepping method < defaulted to > Implicit Euler <
WARNING:: AddEquation: > Timestepping method < defaulted to > Implicit Euler <
WARNING:: AddEquation: > Timestepping method < defaulted to > Implicit Euler <
WARNING:: AddEquation: > Timestepping method < defaulted to > Implicit Euler <
WARNING:: AddEquation: > Timestepping method < defaulted to > Implicit Euler <
WARNING:: AddEquation: > Timestepping method < defaulted to > Implicit Euler <
WARNING:: AddEquation: > Timestepping method < defaulted to > Implicit Euler <
WARNING:: AddEquation: > Timestepping method < defaulted to > Implicit Euler <
WARNING:: AddEquation: > Timestepping method < defaulted to > Implicit Euler <
WARNING:: AddEquation: > Timestepping method < defaulted to > Implicit Euler <
WARNING:: AddEquation: > Timestepping method < defaulted to > Implicit Euler <
WARNING:: AddEquation: > Timestepping method < defaulted to > Implicit Euler <
WARNING:: AddEquation: > Timestepping method < defaulted to > Implicit Euler <
WARNING:: AddEquation: > Timestepping method < defaulted to > Implicit Euler <
WARNING:: AddEquation: > Timestepping method < defaulted to > Implicit Euler <
WARNING:: AddEquation: > Timestepping method < defaulted to > Implicit Euler <
WARNING:: AddEquation: > Timestepping method < defaulted to > Implicit Euler <
WARNING:: AddEquation: > Timestepping method < defaulted to > Implicit Euler <
WARNING:: AddEquation: > Timestepping method < defaulted to > Implicit Euler <
WARNING:: AddEquation: > Timestepping method < defaulted to > Implicit Euler <
WARNING:: AddEquation: > Timestepping method < defaulted to > Implicit Euler <
WARNING:: AddEquation: > Timestepping method < defaulted to > Implicit Euler <
WARNING:: AddEquation: > Timestepping method < defaulted to > Implicit Euler <
WARNING:: AddEquation: > Timestepping method < defaulted to > Implicit Euler <
WARNING:: AddEquation: > Timestepping method < defaulted to > Implicit Euler <
WARNING:: AddEquation: > Timestepping method < defaulted to > Implicit Euler <
WARNING:: AddEquation: > Timestepping method < defaulted to > Implicit Euler <
WARNING:: AddEquation: > Timestepping method < defaulted to > Implicit Euler <
WARNING:: AddEquation: > Timestepping method < defaulted to > Implicit Euler <
WARNING:: AddEquation: > Timestepping method < defaulted to > Implicit Euler <
WARNING:: AddEquation: > Timestepping method < defaulted to > Implicit Euler <
WARNING:: AddEquation: > Timestepping method < defaulted to > Implicit Euler <
WARNING:: AddEquation: > Timestepping method < defaulted to > Implicit Euler <
WARNING:: AddEquation: > Timestepping method < defaulted to > Implicit Euler <
WARNING:: AddEquation: > Timestepping method < defaulted to > Implicit Euler <
WARNING:: AddEquation: > Timestepping method < defaulted to > Implicit Euler <
WARNING:: AddEquation: > Timestepping method < defaulted to > Implicit Euler <
WARNING:: AddEquation: > Timestepping method < defaulted to > Implicit Euler <
WARNING:: AddEquation: > Timestepping method < defaulted to > Implicit Euler <
WARNING:: AddEquation: > Timestepping method < defaulted to > Implicit Euler <
WARNING:: AddEquation: > Timestepping method < defaulted to > Implicit Euler <
WARNING:: AddEquation: > Timestepping method < defaulted to > Implicit Euler <
WARNING:: AddEquation: > Timestepping method < defaulted to > Implicit Euler <
WARNING:: AddEquation: > Timestepping method < defaulted to > Implicit Euler <
WARNING:: AddEquation: > Timestepping method < defaulted to > Implicit Euler <
WARNING:: AddEquation: > Timestepping method < defaulted to > Implicit Euler <
WARNING:: AddEquation: > Timestepping method < defaulted to > Implicit Euler <
WARNING:: AddEquation: > Timestepping method < defaulted to > Implicit Euler <
WARNING:: AddEquation: > Timestepping method < defaulted to > Implicit Euler <
OptimizeBandwidth: ---------------------------------------------------------
OptimizeBandwidth: Computing matrix structure for: navier-stokes...done.
OptimizeBandwidth: Half bandwidth without optimization: 719
OptimizeBandwidth: 
OptimizeBandwidth: Bandwidth Optimization ...done.
OptimizeBandwidth: Half bandwidth after optimization: 667
OptimizeBandwidth: ---------------------------------------------------------
WARNING:: AddEquation: > Timestepping method < defaulted to > Implicit Euler <
WARNING:: AddEquation: > Timestepping method < defaulted to > Implicit Euler <
WARNING:: AddEquation: > Timestepping method < defaulted to > Implicit Euler <
WARNING:: AddEquation: > Timestepping method < defaulted to > Implicit Euler <
WARNING:: AddEquation: > Timestepping method < defaulted to > Implicit Euler <
WARNING:: AddEquation: > Timestepping method < defaulted to > Implicit Euler <
WARNING:: AddEquation: > Timestepping method < defaulted to > Implicit Euler <
WARNING:: AddEquation: > Timestepping method < defaulted to > Implicit Euler <
WARNING:: AddEquation: > Timestepping method < defaulted to > Implicit Euler <
WARNING:: AddEquation: > Timestepping method < defaulted to > Implicit Euler <
WARNING:: AddEquation: > Timestepping method < defaulted to > Implicit Euler <
WARNING:: AddEquation: > Timestepping method < defaulted to > Implicit Euler <
WARNING:: AddEquation: > Timestepping method < defaulted to > Implicit Euler <
WARNING:: AddEquation: > Timestepping method < defaulted to > Implicit Euler <
WARNING:: AddEquation: > Timestepping method < defaulted to > Implicit Euler <
WARNING:: AddEquation: > Timestepping method < defaulted to > Implicit Euler <
WARNING:: AddEquation: > Timestepping method < defaulted to > Implicit Euler <
WARNING:: AddEquation: > Timestepping method < defaulted to > Implicit Euler <
WARNING:: AddEquation: > Timestepping method < defaulted to > Implicit Euler <
WARNING:: AddEquation: > Timestepping method < defaulted to > Implicit Euler <
WARNING:: AddEquation: > Timestepping method < defaulted to > Implicit Euler <
WARNING:: AddEquation: > Timestepping method < defaulted to > Implicit Euler <
WARNING:: AddEquation: > Timestepping method < defaulted to > Implicit Euler <
WARNING:: AddEquation: > Timestepping method < defaulted to > Implicit Euler <
WARNING:: AddEquation: > Timestepping method < defaulted to > Implicit Euler <
AddEquationBasics: Setting up solver: resultoutput
Loading user function library: [ResultOutputSolve]...[ResultOutputSolver_Init]
WARNING:: AddEquation: > Timestepping method < defaulted to > Implicit Euler <
WARNING:: AddEquation: > Timestepping method < defaulted to > Implicit Euler <
WARNING:: AddEquation: > Timestepping method < defaulted to > Implicit Euler <
WARNING:: AddEquation: > Timestepping method < defaulted to > Implicit Euler <
WARNING:: AddEquation: > Timestepping method < defaulted to > Implicit Euler <
WARNING:: AddEquation: > Timestepping method < defaulted to > Implicit Euler <
WARNING:: AddEquation: > Timestepping method < defaulted to > Implicit Euler <
Loading user function library: [ResultOutputSolve]...[ResultOutputSolver_bulk]
WARNING:: AddEquation: > Timestepping method < defaulted to > Implicit Euler <
WARNING:: AddEquation: > Timestepping method < defaulted to > Implicit Euler <
WARNING:: AddEquation: > Timestepping method < defaulted to > Implicit Euler <
WARNING:: AddEquation: > Timestepping method < defaulted to > Implicit Euler <
WARNING:: AddEquation: > Timestepping method < defaulted to > Implicit Euler <
Loading user function library: [ResultOutputSolve]...[ResultOutputSolver]
WARNING:: AddEquation: > Timestepping method < defaulted to > Implicit Euler <
WARNING:: AddEquation: > Timestepping method < defaulted to > Implicit Euler <
WARNING:: AddEquation: > Timestepping method < defaulted to > Implicit Euler <
WARNING:: AddEquation: > Timestepping method < defaulted to > Implicit Euler <
WARNING:: AddEquation: > Timestepping method < defaulted to > Implicit Euler <
WARNING:: AddEquation: > Timestepping method < defaulted to > Implicit Euler <
Restart: Perfoming global Restart for:
LoadRestartFile: 
LoadRestartFile: --------------------------------------------
LoadRestartFile: Restart for mesh name:
LoadRestartFile: Restart for number of nodes: 5475
LoadRestartFile: Reading data from file: ../TG_S1p5/results/readnc_tempc_transient.result.0
WARNING:: AddEquation: > Timestepping method < defaulted to > Implicit Euler <
WARNING:: AddEquation: > Timestepping method < defaulted to > Implicit Euler <
WARNING:: AddEquation: > Timestepping method < defaulted to > Implicit Euler <
WARNING:: AddEquation: > Timestepping method < defaulted to > Implicit Euler <
WARNING:: AddEquation: > Timestepping method < defaulted to > Implicit Euler <
WARNING:: AddEquation: > Timestepping method < defaulted to > Implicit Euler <
WARNING:: AddEquation: > Timestepping method < defaulted to > Implicit Euler <
WARNING:: AddEquation: > Timestepping method < defaulted to > Implicit Euler <
WARNING:: AddEquation: > Timestepping method < defaulted to > Implicit Euler <
WARNING:: AddEquation: > Timestepping method < defaulted to > Implicit Euler <
WARNING:: AddEquation: > Timestepping method < defaulted to > Implicit Euler <
WARNING:: AddEquation: > Timestepping method < defaulted to > Implicit Euler <
WARNING:: AddEquation: > Timestepping method < defaulted to > Implicit Euler <
WARNING:: AddEquation: > Timestepping method < defaulted to > Implicit Euler <
WARNING:: AddEquation: > Timestepping method < defaulted to > Implicit Euler <
WARNING:: AddEquation: > Timestepping method < defaulted to > Implicit Euler <
WARNING:: AddEquation: > Timestepping method < defaulted to > Implicit Euler <
WARNING:: AddEquation: > Timestepping method < defaulted to > Implicit Euler <
WARNING:: AddEquation: > Timestepping method < defaulted to > Implicit Euler <
WARNING:: AddEquation: > Timestepping method < defaulted to > Implicit Euler <
WARNING:: AddEquation: > Timestepping method < defaulted to > Implicit Euler <
WARNING:: AddEquation: > Timestepping method < defaulted to > Implicit Euler <
WARNING:: AddEquation: > Timestepping method < defaulted to > Implicit Euler <
WARNING:: AddEquation: > Timestepping method < defaulted to > Implicit Euler <
WARNING:: AddEquation: > Timestepping method < defaulted to > Implicit Euler <
WARNING:: AddEquation: > Timestepping method < defaulted to > Implicit Euler <
WARNING:: AddEquation: > Timestepping method < defaulted to > Implicit Euler <
WARNING:: AddEquation: > Timestepping method < defaulted to > Implicit Euler <
WARNING:: AddEquation: > Timestepping method < defaulted to > Implicit Euler <
WARNING:: AddEquation: > Timestepping method < defaulted to > Implicit Euler <
WARNING:: AddEquation: > Timestepping method < defaulted to > Implicit Euler <
WARNING:: AddEquation: > Timestepping method < defaulted to > Implicit Euler <
WARNING:: AddEquation: > Timestepping method < defaulted to > Implicit Euler <
WARNING:: AddEquation: > Timestepping method < defaulted to > Implicit Euler <
WARNING:: AddEquation: > Timestepping method < defaulted to > Implicit Euler <
WARNING:: AddEquation: > Timestepping method < defaulted to > Implicit Euler <
WARNING:: AddEquation: > Timestepping method < defaulted to > Implicit Euler <
WARNING:: AddEquation: > Timestepping method < defaulted to > Implicit Euler <
WARNING:: AddEquation: > Timestepping method < defaulted to > Implicit Euler <
WARNING:: AddEquation: > Timestepping method < defaulted to > Implicit Euler <
WARNING:: AddEquation: > Timestepping method < defaulted to > Implicit Euler <
WARNING:: AddEquation: > Timestepping method < defaulted to > Implicit Euler <
WARNING:: AddEquation: > Timestepping method < defaulted to > Implicit Euler <
WARNING:: AddEquation: > Timestepping method < defaulted to > Implicit Euler <
WARNING:: AddEquation: > Timestepping method < defaulted to > Implicit Euler <
WARNING:: AddEquation: > Timestepping method < defaulted to > Implicit Euler <
WARNING:: AddEquation: > Timestepping method < defaulted to > Implicit Euler <
WARNING:: AddEquation: > Timestepping method < defaulted to > Implicit Euler <
WARNING:: AddEquation: > Timestepping method < defaulted to > Implicit Euler <
WARNING:: AddEquation: > Timestepping method < defaulted to > Implicit Euler <
WARNING:: AddEquation: > Timestepping method < defaulted to > Implicit Euler <
WARNING:: AddEquation: > Timestepping method < defaulted to > Implicit Euler <
WARNING:: AddEquation: > Timestepping method < defaulted to > Implicit Euler <
WARNING:: AddEquation: > Timestepping method < defaulted to > Implicit Euler <
WARNING:: AddEquation: > Timestepping method < defaulted to > Implicit Euler <
WARNING:: AddEquation: > Timestepping method < defaulted to > Implicit Euler <
WARNING:: AddEquation: > Timestepping method < defaulted to > Implicit Euler <
WARNING:: AddEquation: > Timestepping method < defaulted to > Implicit Euler <
WARNING:: AddEquation: > Timestepping method < defaulted to > Implicit Euler <
WARNING:: AddEquation: > Timestepping method < defaulted to > Implicit Euler <
WARNING:: AddEquation: > Timestepping method < defaulted to > Implicit Euler <
WARNING:: AddEquation: > Timestepping method < defaulted to > Implicit Euler <
WARNING:: AddEquation: > Timestepping method < defaulted to > Implicit Euler <
WARNING:: AddEquation: > Timestepping method < defaulted to > Implicit Euler <
WARNING:: AddEquation: > Timestepping method < defaulted to > Implicit Euler <
WARNING:: AddEquation: > Timestepping method < defaulted to > Implicit Euler <
WARNING:: AddEquation: > Timestepping method < defaulted to > Implicit Euler <
WARNING:: AddEquation: > Timestepping method < defaulted to > Implicit Euler <
[...]
FlowSolve:  Relative Change :    1.9868561062992074
FlowSolve: 
FlowSolve: 
FlowSolve: -------------------------------------
FlowSolve:  NAVIER-STOKES ITERATION           3
FlowSolve: -------------------------------------
FlowSolve: 
FlowSolve: Starting Assembly...
FlowSolve: Assembly:
: .Saving bulk values for: navier-stokes
FlowSolve: Assembly done
DefUtils::DefaultDirichletBCs: Setting Dirichlet boundary conditions
EnforceDirichletConditions: Applying Dirichlet conditions using scaled diagonal
FlowSolve: Dirichlet conditions done
SolveLinearSystem: Assuming real valued linear system
SolveLinearSystem: Linear System Solver: direct
SolveLinearSystem: Parallel linear System Solver: direct
SolveLinearSystem: Calculating nodal loads
ComputeChange: NS (ITER=3) (NRM,RELC): (  233.80407      1.8654660     ) :: navier-stokes
SolveSystem: Linear system time (CPU,REAL) for flow solution:    78.58   84.85 (s)
FlowSolve: iter:    3 Assembly: (s)    1.56    4.66
FlowSolve: iter:    3 Solve:    (s)   78.58  236.69
FlowSolve:  Result Norm     :    233.80407085644063
FlowSolve:  Relative Change :    1.8654659724797480
FlowSolve: 
FlowSolve: 
FlowSolve: -------------------------------------
FlowSolve:  NAVIER-STOKES ITERATION           4
FlowSolve: -------------------------------------
FlowSolve: 
FlowSolve: Starting Assembly...
FlowSolve: Assembly:
: .Saving bulk values for: navier-stokes
FlowSolve: Assembly done
DefUtils::DefaultDirichletBCs: Setting Dirichlet boundary conditions
EnforceDirichletConditions: Applying Dirichlet conditions using scaled diagonal
FlowSolve: Dirichlet conditions done
SolveLinearSystem: Assuming real valued linear system
SolveLinearSystem: Linear System Solver: direct
SolveLinearSystem: Parallel linear System Solver: direct
SolveLinearSystem: Calculating nodal loads
ComputeChange: NS (ITER=4) (NRM,RELC): (  1998.1475      1.5809872     ) :: navier-stokes
SolveSystem: Linear system time (CPU,REAL) for flow solution:    78.67   84.84 (s)
FlowSolve: iter:    4 Assembly: (s)    1.55    6.22
FlowSolve: iter:    4 Solve:    (s)   78.67  315.36
FlowSolve:  Result Norm     :    1998.1474682821372
FlowSolve:  Relative Change :    1.5809871912421944
FlowSolve: 
FlowSolve: 
FlowSolve: -------------------------------------
FlowSolve:  NAVIER-STOKES ITERATION           5
FlowSolve: -------------------------------------
FlowSolve: 
FlowSolve: Starting Assembly...
FlowSolve: Assembly:
: .Saving bulk values for: navier-stokes
FlowSolve: Assembly done
DefUtils::DefaultDirichletBCs: Setting Dirichlet boundary conditions
EnforceDirichletConditions: Applying Dirichlet conditions using scaled diagonal
FlowSolve: Dirichlet conditions done
SolveLinearSystem: Assuming real valued linear system
SolveLinearSystem: Linear System Solver: direct
SolveLinearSystem: Parallel linear System Solver: direct
SolveLinearSystem: Calculating nodal loads
ComputeChange: NS (ITER=5) (NRM,RELC): (  8772.4204      1.2579231     ) :: navier-stokes
SolveSystem: Linear system time (CPU,REAL) for flow solution:    80.61   86.45 (s)
FlowSolve: iter:    5 Assembly: (s)    1.56    7.78
FlowSolve: iter:    5 Solve:    (s)   80.61  395.96
FlowSolve:  Result Norm     :    8772.4204051470806
FlowSolve:  Relative Change :    1.2579230763824336
FlowSolve: 
FlowSolve: 
FlowSolve: -------------------------------------
FlowSolve:  NAVIER-STOKES ITERATION           6
FlowSolve: -------------------------------------
FlowSolve: 
FlowSolve: Starting Assembly...
FlowSolve: Assembly:
: .Saving bulk values for: navier-stokes
FlowSolve: Assembly done
DefUtils::DefaultDirichletBCs: Setting Dirichlet boundary conditions
EnforceDirichletConditions: Applying Dirichlet conditions using scaled diagonal
FlowSolve: Dirichlet conditions done
SolveLinearSystem: Assuming real valued linear system
SolveLinearSystem: Linear System Solver: direct
SolveLinearSystem: Parallel linear System Solver: direct
SolveLinearSystem: Calculating nodal loads
ComputeChange: NS (ITER=6) (NRM,RELC): (  25553.843     0.97775993     ) :: navier-stokes
SolveSystem: Linear system time (CPU,REAL) for flow solution:    80.32   86.54 (s)
FlowSolve: iter:    6 Assembly: (s)    1.56    9.34
FlowSolve: iter:    6 Solve:    (s)   80.32  476.29
FlowSolve:  Result Norm     :    25553.842653237734
FlowSolve:  Relative Change :   0.97775992799143252
FlowSolve: 
FlowSolve: 
FlowSolve: -------------------------------------
FlowSolve:  NAVIER-STOKES ITERATION           7
FlowSolve: -------------------------------------
FlowSolve: 
FlowSolve: Starting Assembly...
FlowSolve: Assembly:
: .Saving bulk values for: navier-stokes
FlowSolve: Assembly done
DefUtils::DefaultDirichletBCs: Setting Dirichlet boundary conditions
EnforceDirichletConditions: Applying Dirichlet conditions using scaled diagonal
FlowSolve: Dirichlet conditions done
SolveLinearSystem: Assuming real valued linear system
SolveLinearSystem: Linear System Solver: direct
SolveLinearSystem: Parallel linear System Solver: direct
SolveLinearSystem: Calculating nodal loads
ComputeChange: NS (ITER=7) (NRM,RELC): (  56022.854     0.74700283     ) :: navier-stokes
SolveSystem: Linear system time (CPU,REAL) for flow solution:    79.00   85.09 (s)
FlowSolve: iter:    7 Assembly: (s)    1.69   11.03
FlowSolve: iter:    7 Solve:    (s)   79.00  555.29
FlowSolve:  Result Norm     :    56022.854332351613
FlowSolve:  Relative Change :   0.74700282813598795
FlowSolve: 
FlowSolve: 
FlowSolve: -------------------------------------
FlowSolve:  NAVIER-STOKES ITERATION           8
FlowSolve: -------------------------------------
FlowSolve: 
FlowSolve: Starting Assembly...
FlowSolve: Assembly:
: .Saving bulk values for: navier-stokes
FlowSolve: Assembly done
DefUtils::DefaultDirichletBCs: Setting Dirichlet boundary conditions
EnforceDirichletConditions: Applying Dirichlet conditions using scaled diagonal
FlowSolve: Dirichlet conditions done
SolveLinearSystem: Assuming real valued linear system
SolveLinearSystem: Linear System Solver: direct
SolveLinearSystem: Parallel linear System Solver: direct
SolveLinearSystem: Calculating nodal loads
ComputeChange: NS (ITER=8) (NRM,RELC): (  100678.96     0.56995006     ) :: navier-stokes
SolveSystem: Linear system time (CPU,REAL) for flow solution:    81.53   87.26 (s)
FlowSolve: iter:    8 Assembly: (s)    1.56   12.59
FlowSolve: iter:    8 Solve:    (s)   81.53  636.82
FlowSolve:  Result Norm     :    100678.95797941013
FlowSolve:  Relative Change :   0.56995005977613333
FlowSolve: 
FlowSolve: 
FlowSolve: -------------------------------------
FlowSolve:  NAVIER-STOKES ITERATION           9
FlowSolve: -------------------------------------
FlowSolve: 
FlowSolve: Starting Assembly...
FlowSolve: Assembly:
: .Saving bulk values for: navier-stokes
FlowSolve: Assembly done
DefUtils::DefaultDirichletBCs: Setting Dirichlet boundary conditions
EnforceDirichletConditions: Applying Dirichlet conditions using scaled diagonal
FlowSolve: Dirichlet conditions done
SolveLinearSystem: Assuming real valued linear system
SolveLinearSystem: Linear System Solver: direct
SolveLinearSystem: Parallel linear System Solver: direct
SolveLinearSystem: Calculating nodal loads
ComputeChange: NS (ITER=9) (NRM,RELC): (  157141.10     0.43799653     ) :: navier-stokes
SolveSystem: Linear system time (CPU,REAL) for flow solution:    78.98   85.01 (s)
FlowSolve: iter:    9 Assembly: (s)    1.56   14.15
FlowSolve: iter:    9 Solve:    (s)   78.98  715.79
FlowSolve:  Result Norm     :    157141.10393059888
FlowSolve:  Relative Change :   0.43799652775583170
FlowSolve: 
FlowSolve: 
FlowSolve: -------------------------------------
FlowSolve:  NAVIER-STOKES ITERATION          10
FlowSolve: -------------------------------------
FlowSolve: 
FlowSolve: Starting Assembly...
FlowSolve: Assembly:
: .Saving bulk values for: navier-stokes
FlowSolve: Assembly done
DefUtils::DefaultDirichletBCs: Setting Dirichlet boundary conditions
EnforceDirichletConditions: Applying Dirichlet conditions using scaled diagonal
FlowSolve: Dirichlet conditions done
SolveLinearSystem: Assuming real valued linear system
SolveLinearSystem: Linear System Solver: direct
SolveLinearSystem: Parallel linear System Solver: direct
SolveLinearSystem: Calculating nodal loads
ComputeChange: NS (ITER=10) (NRM,RELC): (  221442.96     0.33969658     ) :: navier-stokes
SolveSystem: Linear system time (CPU,REAL) for flow solution:    78.67   84.50 (s)
FlowSolve: iter:   10 Assembly: (s)    1.56   15.71
FlowSolve: iter:   10 Solve:    (s)   78.67  794.46
FlowSolve:  Result Norm     :    221442.95924795402
FlowSolve:  Relative Change :   0.33969657770315720
FlowSolve: 
FlowSolve: 
FlowSolve: -------------------------------------
FlowSolve:  NAVIER-STOKES ITERATION          11
FlowSolve: -------------------------------------
FlowSolve: 
FlowSolve: Starting Assembly...
FlowSolve: Assembly:
: .Saving bulk values for: navier-stokes
FlowSolve: Assembly done
DefUtils::DefaultDirichletBCs: Setting Dirichlet boundary conditions
EnforceDirichletConditions: Applying Dirichlet conditions using scaled diagonal
FlowSolve: Dirichlet conditions done
SolveLinearSystem: Assuming real valued linear system
SolveLinearSystem: Linear System Solver: direct
SolveLinearSystem: Parallel linear System Solver: direct
SolveLinearSystem: Calculating nodal loads
ComputeChange: NS (ITER=11) (NRM,RELC): (  289299.37     0.26571680     ) :: navier-stokes
SolveSystem: Linear system time (CPU,REAL) for flow solution:    78.37   84.64 (s)
FlowSolve: iter:   11 Assembly: (s)    1.56   17.27
FlowSolve: iter:   11 Solve:    (s)   78.37  872.84
FlowSolve:  Result Norm     :    289299.36667242966
FlowSolve:  Relative Change :   0.26571679682977106
FlowSolve: 
FlowSolve: 
FlowSolve: -------------------------------------
FlowSolve:  NAVIER-STOKES ITERATION          12
FlowSolve: -------------------------------------
FlowSolve: 
FlowSolve: Starting Assembly...
FlowSolve: Assembly:
: .Saving bulk values for: navier-stokes
FlowSolve: Assembly done
DefUtils::DefaultDirichletBCs: Setting Dirichlet boundary conditions
EnforceDirichletConditions: Applying Dirichlet conditions using scaled diagonal
FlowSolve: Dirichlet conditions done
SolveLinearSystem: Assuming real valued linear system
SolveLinearSystem: Linear System Solver: direct
SolveLinearSystem: Parallel linear System Solver: direct
SolveLinearSystem: Calculating nodal loads
ComputeChange: NS (ITER=12) (NRM,RELC): (  356941.45     0.20934017     ) :: navier-stokes
SolveSystem: Linear system time (CPU,REAL) for flow solution:    77.24   83.66 (s)
FlowSolve: iter:   12 Assembly: (s)    1.56   18.83
FlowSolve: iter:   12 Solve:    (s)   77.24  950.07
FlowSolve:  Result Norm     :    356941.44771174213
FlowSolve:  Relative Change :   0.20934017020813292
FlowSolve: 
FlowSolve: 
FlowSolve: -------------------------------------
FlowSolve:  NAVIER-STOKES ITERATION          13
FlowSolve: -------------------------------------
FlowSolve: 
FlowSolve: Starting Assembly...
FlowSolve: Assembly:
: .Saving bulk values for: navier-stokes
FlowSolve: Assembly done
DefUtils::DefaultDirichletBCs: Setting Dirichlet boundary conditions
EnforceDirichletConditions: Applying Dirichlet conditions using scaled diagonal
FlowSolve: Dirichlet conditions done
SolveLinearSystem: Assuming real valued linear system
SolveLinearSystem: Linear System Solver: direct
SolveLinearSystem: Parallel linear System Solver: direct
SolveLinearSystem: Calculating nodal loads
ComputeChange: NS (ITER=13) (NRM,RELC): (  421516.71     0.16590553     ) :: navier-stokes
SolveSystem: Linear system time (CPU,REAL) for flow solution:    79.38   85.02 (s)
FlowSolve: iter:   13 Assembly: (s)    1.55   20.38
FlowSolve: iter:   13 Solve:    (s)   79.38 1029.45
FlowSolve:  Result Norm     :    421516.70563762350
FlowSolve:  Relative Change :   0.16590553428734023
FlowSolve: 
FlowSolve: 
FlowSolve: -------------------------------------
FlowSolve:  NAVIER-STOKES ITERATION          14
FlowSolve: -------------------------------------
FlowSolve: 
FlowSolve: Starting Assembly...
FlowSolve: Assembly:
: .Saving bulk values for: navier-stokes
FlowSolve: Assembly done
DefUtils::DefaultDirichletBCs: Setting Dirichlet boundary conditions
EnforceDirichletConditions: Applying Dirichlet conditions using scaled diagonal
FlowSolve: Dirichlet conditions done
SolveLinearSystem: Assuming real valued linear system
SolveLinearSystem: Linear System Solver: direct
SolveLinearSystem: Parallel linear System Solver: direct
SolveLinearSystem: Calculating nodal loads
ComputeChange: NS (ITER=14) (NRM,RELC): (  481160.48     0.13214863     ) :: navier-stokes
SolveSystem: Linear system time (CPU,REAL) for flow solution:    79.24   84.92 (s)
FlowSolve: iter:   14 Assembly: (s)    1.56   21.94
FlowSolve: iter:   14 Solve:    (s)   79.24 1108.69
FlowSolve:  Result Norm     :    481160.48219392018
FlowSolve:  Relative Change :   0.13214862934461866
FlowSolve: 
FlowSolve: 
FlowSolve: -------------------------------------
FlowSolve:  NAVIER-STOKES ITERATION          15
FlowSolve: -------------------------------------
FlowSolve: 
FlowSolve: Starting Assembly...
FlowSolve: Assembly:
: .Saving bulk values for: navier-stokes
FlowSolve: Assembly done
DefUtils::DefaultDirichletBCs: Setting Dirichlet boundary conditions
EnforceDirichletConditions: Applying Dirichlet conditions using scaled diagonal
FlowSolve: Dirichlet conditions done
SolveLinearSystem: Assuming real valued linear system
SolveLinearSystem: Linear System Solver: direct
SolveLinearSystem: Parallel linear System Solver: direct
SolveLinearSystem: Calculating nodal loads
ComputeChange: NS (ITER=15) (NRM,RELC): (  534877.57     0.10573834     ) :: navier-stokes
SolveSystem: Linear system time (CPU,REAL) for flow solution:    79.37   85.34 (s)
FlowSolve: iter:   15 Assembly: (s)    1.56   23.50
FlowSolve: iter:   15 Solve:    (s)   79.37 1188.06
FlowSolve:  Result Norm     :    534877.56998108700
FlowSolve:  Relative Change :   0.10573833858323711
FlowSolve: 
FlowSolve: 
FlowSolve: -------------------------------------
FlowSolve:  NAVIER-STOKES ITERATION          16
FlowSolve: -------------------------------------
FlowSolve: 
FlowSolve: Starting Assembly...
FlowSolve: Assembly:
: .Saving bulk values for: navier-stokes
FlowSolve: Assembly done
DefUtils::DefaultDirichletBCs: Setting Dirichlet boundary conditions
EnforceDirichletConditions: Applying Dirichlet conditions using scaled diagonal
FlowSolve: Dirichlet conditions done
SolveLinearSystem: Assuming real valued linear system
SolveLinearSystem: Linear System Solver: direct
SolveLinearSystem: Parallel linear System Solver: direct
SolveLinearSystem: Calculating nodal loads
ComputeChange: NS (ITER=16) (NRM,RELC): (  582342.04     0.84968909E-01 ) :: navier-stokes
SolveSystem: Linear system time (CPU,REAL) for flow solution:    78.54   84.60 (s)
FlowSolve: iter:   16 Assembly: (s)    1.70   25.21
FlowSolve: iter:   16 Solve:    (s)   78.54 1266.60
FlowSolve:  Result Norm     :    582342.03569237911
FlowSolve:  Relative Change :    8.4968909371547011E-002
FlowSolve: 
FlowSolve: 
FlowSolve: -------------------------------------
FlowSolve:  NAVIER-STOKES ITERATION          17
FlowSolve: -------------------------------------
FlowSolve: 
FlowSolve: Starting Assembly...
FlowSolve: Assembly:
: .Saving bulk values for: navier-stokes
FlowSolve: Assembly done
DefUtils::DefaultDirichletBCs: Setting Dirichlet boundary conditions
EnforceDirichletConditions: Applying Dirichlet conditions using scaled diagonal
FlowSolve: Dirichlet conditions done
SolveLinearSystem: Assuming real valued linear system
SolveLinearSystem: Linear System Solver: direct
SolveLinearSystem: Parallel linear System Solver: direct
SolveLinearSystem: Calculating nodal loads
ComputeChange: NS (ITER=17) (NRM,RELC): (  623686.21     0.68562531E-01 ) :: navier-stokes
SolveSystem: Linear system time (CPU,REAL) for flow solution:    80.24   85.81 (s)
FlowSolve: iter:   17 Assembly: (s)    1.54   26.75
FlowSolve: iter:   17 Solve:    (s)   80.24 1346.84
FlowSolve:  Result Norm     :    623686.20995355351
FlowSolve:  Relative Change :    6.8562530621380277E-002
FlowSolve: 
FlowSolve: 
FlowSolve: -------------------------------------
FlowSolve:  NAVIER-STOKES ITERATION          18
FlowSolve: -------------------------------------
FlowSolve: 
FlowSolve: Starting Assembly...
FlowSolve: Assembly:
: .Saving bulk values for: navier-stokes
FlowSolve: Assembly done
DefUtils::DefaultDirichletBCs: Setting Dirichlet boundary conditions
EnforceDirichletConditions: Applying Dirichlet conditions using scaled diagonal
FlowSolve: Dirichlet conditions done
SolveLinearSystem: Assuming real valued linear system
SolveLinearSystem: Linear System Solver: direct
SolveLinearSystem: Parallel linear System Solver: direct
SolveLinearSystem: Calculating nodal loads
ComputeChange: NS (ITER=18) (NRM,RELC): (  659318.96     0.55545762E-01 ) :: navier-stokes
SolveSystem: Linear system time (CPU,REAL) for flow solution:    77.92   83.91 (s)
FlowSolve: iter:   18 Assembly: (s)    1.54   28.29
FlowSolve: iter:   18 Solve:    (s)   77.92 1424.76
FlowSolve:  Result Norm     :    659318.95959867549
FlowSolve:  Relative Change :    5.5545761608361832E-002
FlowSolve: 
FlowSolve: 
FlowSolve: -------------------------------------
FlowSolve:  NAVIER-STOKES ITERATION          19
FlowSolve: -------------------------------------
FlowSolve: 
FlowSolve: Starting Assembly...
FlowSolve: Assembly:
: .Saving bulk values for: navier-stokes
FlowSolve: Assembly done
DefUtils::DefaultDirichletBCs: Setting Dirichlet boundary conditions
EnforceDirichletConditions: Applying Dirichlet conditions using scaled diagonal
FlowSolve: Dirichlet conditions done
SolveLinearSystem: Assuming real valued linear system
SolveLinearSystem: Linear System Solver: direct
SolveLinearSystem: Parallel linear System Solver: direct
SolveLinearSystem: Calculating nodal loads
ComputeChange: NS (ITER=19) (NRM,RELC): (  689788.92     0.45170533E-01 ) :: navier-stokes
SolveSystem: Linear system time (CPU,REAL) for flow solution:    78.24   84.51 (s)
FlowSolve: iter:   19 Assembly: (s)    1.54   29.83
FlowSolve: iter:   19 Solve:    (s)   78.24 1503.01
FlowSolve:  Result Norm     :    689788.92045819783
FlowSolve:  Relative Change :    4.5170532779391724E-002
FlowSolve: 
FlowSolve: 
FlowSolve: -------------------------------------
FlowSolve:  NAVIER-STOKES ITERATION          20
FlowSolve: -------------------------------------
FlowSolve: 
FlowSolve: Starting Assembly...
FlowSolve: Assembly:
: .Saving bulk values for: navier-stokes
FlowSolve: Assembly done
DefUtils::DefaultDirichletBCs: Setting Dirichlet boundary conditions
EnforceDirichletConditions: Applying Dirichlet conditions using scaled diagonal
FlowSolve: Dirichlet conditions done
SolveLinearSystem: Assuming real valued linear system
SolveLinearSystem: Linear System Solver: direct
SolveLinearSystem: Parallel linear System Solver: direct
SolveLinearSystem: Calculating nodal loads
ComputeChange: NS (ITER=20) (NRM,RELC): (  715692.28     0.36860479E-01 ) :: navier-stokes
SolveSystem: Linear system time (CPU,REAL) for flow solution:    79.64   85.75 (s)
FlowSolve: iter:   20 Assembly: (s)    1.54   31.37
FlowSolve: iter:   20 Solve:    (s)   79.64 1582.65
FlowSolve:  Result Norm     :    715692.27556118660
FlowSolve:  Relative Change :    3.6860479067742022E-002
FlowSolve: 
FlowSolve: 
FlowSolve: -------------------------------------
FlowSolve:  NAVIER-STOKES ITERATION          21
FlowSolve: -------------------------------------
FlowSolve: 
FlowSolve: Starting Assembly...
FlowSolve: Assembly:
: .Saving bulk values for: navier-stokes
FlowSolve: Assembly done
DefUtils::DefaultDirichletBCs: Setting Dirichlet boundary conditions
EnforceDirichletConditions: Applying Dirichlet conditions using scaled diagonal
FlowSolve: Dirichlet conditions done
SolveLinearSystem: Assuming real valued linear system
SolveLinearSystem: Linear System Solver: direct
SolveLinearSystem: Parallel linear System Solver: direct
