ELMER SOLVER (v 9.0) STARTED AT: 2021/04/14 12:04:12
ELMER SOLVER (v 9.0) STARTED AT: 2021/04/14 12:04:12
ELMER SOLVER (v 9.0) STARTED AT: 2021/04/14 12:04:12
ELMER SOLVER (v 9.0) STARTED AT: 2021/04/14 12:04:12
ELMER SOLVER (v 9.0) STARTED AT: 2021/04/14 12:04:12
ELMER SOLVER (v 9.0) STARTED AT: 2021/04/14 12:04:12
ELMER SOLVER (v 9.0) STARTED AT: 2021/04/14 12:04:12
ELMER SOLVER (v 9.0) STARTED AT: 2021/04/14 12:04:12
ELMER SOLVER (v 9.0) STARTED AT: 2021/04/14 12:04:12
ELMER SOLVER (v 9.0) STARTED AT: 2021/04/14 12:04:12
ELMER SOLVER (v 9.0) STARTED AT: 2021/04/14 12:04:12
ELMER SOLVER (v 9.0) STARTED AT: 2021/04/14 12:04:12
ELMER SOLVER (v 9.0) STARTED AT: 2021/04/14 12:04:12
ELMER SOLVER (v 9.0) STARTED AT: 2021/04/14 12:04:12
ELMER SOLVER (v 9.0) STARTED AT: 2021/04/14 12:04:12
ELMER SOLVER (v 9.0) STARTED AT: 2021/04/14 12:04:12
ELMER SOLVER (v 9.0) STARTED AT: 2021/04/14 12:04:12
ELMER SOLVER (v 9.0) STARTED AT: 2021/04/14 12:04:12
ELMER SOLVER (v 9.0) STARTED AT: 2021/04/14 12:04:12
ELMER SOLVER (v 9.0) STARTED AT: 2021/04/14 12:04:12
ELMER SOLVER (v 9.0) STARTED AT: 2021/04/14 12:04:12
ELMER SOLVER (v 9.0) STARTED AT: 2021/04/14 12:04:12
ELMER SOLVER (v 9.0) STARTED AT: 2021/04/14 12:04:12
ELMER SOLVER (v 9.0) STARTED AT: 2021/04/14 12:04:12
ELMER SOLVER (v 9.0) STARTED AT: 2021/04/14 12:04:12
ELMER SOLVER (v 9.0) STARTED AT: 2021/04/14 12:04:12
ELMER SOLVER (v 9.0) STARTED AT: 2021/04/14 12:04:12
ELMER SOLVER (v 9.0) STARTED AT: 2021/04/14 12:04:12
ELMER SOLVER (v 9.0) STARTED AT: 2021/04/14 12:04:12
ELMER SOLVER (v 9.0) STARTED AT: 2021/04/14 12:04:12
ELMER SOLVER (v 9.0) STARTED AT: 2021/04/14 12:04:12
ELMER SOLVER (v 9.0) STARTED AT: 2021/04/14 12:04:12
ELMER SOLVER (v 9.0) STARTED AT: 2021/04/14 12:04:12
ELMER SOLVER (v 9.0) STARTED AT: 2021/04/14 12:04:12
ELMER SOLVER (v 9.0) STARTED AT: 2021/04/14 12:04:12
ELMER SOLVER (v 9.0) STARTED AT: 2021/04/14 12:04:12
ELMER SOLVER (v 9.0) STARTED AT: 2021/04/14 12:04:12
ELMER SOLVER (v 9.0) STARTED AT: 2021/04/14 12:04:12
ELMER SOLVER (v 9.0) STARTED AT: 2021/04/14 12:04:12
ELMER SOLVER (v 9.0) STARTED AT: 2021/04/14 12:04:12
ELMER SOLVER (v 9.0) STARTED AT: 2021/04/14 12:04:12
ELMER SOLVER (v 9.0) STARTED AT: 2021/04/14 12:04:12
ELMER SOLVER (v 9.0) STARTED AT: 2021/04/14 12:04:12
ELMER SOLVER (v 9.0) STARTED AT: 2021/04/14 12:04:12
ELMER SOLVER (v 9.0) STARTED AT: 2021/04/14 12:04:12
ELMER SOLVER (v 9.0) STARTED AT: 2021/04/14 12:04:12
ELMER SOLVER (v 9.0) STARTED AT: 2021/04/14 12:04:12
ELMER SOLVER (v 9.0) STARTED AT: 2021/04/14 12:04:12
ELMER SOLVER (v 9.0) STARTED AT: 2021/04/14 12:04:12
ELMER SOLVER (v 9.0) STARTED AT: 2021/04/14 12:04:12
ELMER SOLVER (v 9.0) STARTED AT: 2021/04/14 12:04:12
ELMER SOLVER (v 9.0) STARTED AT: 2021/04/14 12:04:12
ELMER SOLVER (v 9.0) STARTED AT: 2021/04/14 12:04:12
ELMER SOLVER (v 9.0) STARTED AT: 2021/04/14 12:04:12
ELMER SOLVER (v 9.0) STARTED AT: 2021/04/14 12:04:12
ELMER SOLVER (v 9.0) STARTED AT: 2021/04/14 12:04:12
ELMER SOLVER (v 9.0) STARTED AT: 2021/04/14 12:04:12
ELMER SOLVER (v 9.0) STARTED AT: 2021/04/14 12:04:12
ELMER SOLVER (v 9.0) STARTED AT: 2021/04/14 12:04:12
ELMER SOLVER (v 9.0) STARTED AT: 2021/04/14 12:04:12
ELMER SOLVER (v 9.0) STARTED AT: 2021/04/14 12:04:12
ELMER SOLVER (v 9.0) STARTED AT: 2021/04/14 12:04:12
ELMER SOLVER (v 9.0) STARTED AT: 2021/04/14 12:04:12
ELMER SOLVER (v 9.0) STARTED AT: 2021/04/14 12:04:12
ELMER SOLVER (v 9.0) STARTED AT: 2021/04/14 12:04:12
ELMER SOLVER (v 9.0) STARTED AT: 2021/04/14 12:04:12
ELMER SOLVER (v 9.0) STARTED AT: 2021/04/14 12:04:12
ELMER SOLVER (v 9.0) STARTED AT: 2021/04/14 12:04:12
ELMER SOLVER (v 9.0) STARTED AT: 2021/04/14 12:04:12
ELMER SOLVER (v 9.0) STARTED AT: 2021/04/14 12:04:12
ELMER SOLVER (v 9.0) STARTED AT: 2021/04/14 12:04:12
ELMER SOLVER (v 9.0) STARTED AT: 2021/04/14 12:04:12
ELMER SOLVER (v 9.0) STARTED AT: 2021/04/14 12:04:12
ELMER SOLVER (v 9.0) STARTED AT: 2021/04/14 12:04:12
ELMER SOLVER (v 9.0) STARTED AT: 2021/04/14 12:04:12
ELMER SOLVER (v 9.0) STARTED AT: 2021/04/14 12:04:12
ELMER SOLVER (v 9.0) STARTED AT: 2021/04/14 12:04:12
ELMER SOLVER (v 9.0) STARTED AT: 2021/04/14 12:04:12
ELMER SOLVER (v 9.0) STARTED AT: 2021/04/14 12:04:12
ELMER SOLVER (v 9.0) STARTED AT: 2021/04/14 12:04:12
ELMER SOLVER (v 9.0) STARTED AT: 2021/04/14 12:04:12
ELMER SOLVER (v 9.0) STARTED AT: 2021/04/14 12:04:12
ELMER SOLVER (v 9.0) STARTED AT: 2021/04/14 12:04:12
ELMER SOLVER (v 9.0) STARTED AT: 2021/04/14 12:04:12
ELMER SOLVER (v 9.0) STARTED AT: 2021/04/14 12:04:12
ELMER SOLVER (v 9.0) STARTED AT: 2021/04/14 12:04:12
ELMER SOLVER (v 9.0) STARTED AT: 2021/04/14 12:04:12
ELMER SOLVER (v 9.0) STARTED AT: 2021/04/14 12:04:12
ELMER SOLVER (v 9.0) STARTED AT: 2021/04/14 12:04:12
ELMER SOLVER (v 9.0) STARTED AT: 2021/04/14 12:04:12
ELMER SOLVER (v 9.0) STARTED AT: 2021/04/14 12:04:12
ELMER SOLVER (v 9.0) STARTED AT: 2021/04/14 12:04:12
ELMER SOLVER (v 9.0) STARTED AT: 2021/04/14 12:04:12
ELMER SOLVER (v 9.0) STARTED AT: 2021/04/14 12:04:12
ELMER SOLVER (v 9.0) STARTED AT: 2021/04/14 12:04:12
ELMER SOLVER (v 9.0) STARTED AT: 2021/04/14 12:04:12
ELMER SOLVER (v 9.0) STARTED AT: 2021/04/14 12:04:12
ELMER SOLVER (v 9.0) STARTED AT: 2021/04/14 12:04:12
ELMER SOLVER (v 9.0) STARTED AT: 2021/04/14 12:04:12
ELMER SOLVER (v 9.0) STARTED AT: 2021/04/14 12:04:12
ELMER SOLVER (v 9.0) STARTED AT: 2021/04/14 12:04:12
ELMER SOLVER (v 9.0) STARTED AT: 2021/04/14 12:04:12
ELMER SOLVER (v 9.0) STARTED AT: 2021/04/14 12:04:12
ELMER SOLVER (v 9.0) STARTED AT: 2021/04/14 12:04:12
ELMER SOLVER (v 9.0) STARTED AT: 2021/04/14 12:04:12
ELMER SOLVER (v 9.0) STARTED AT: 2021/04/14 12:04:12
ELMER SOLVER (v 9.0) STARTED AT: 2021/04/14 12:04:12
ELMER SOLVER (v 9.0) STARTED AT: 2021/04/14 12:04:12
ELMER SOLVER (v 9.0) STARTED AT: 2021/04/14 12:04:12
ELMER SOLVER (v 9.0) STARTED AT: 2021/04/14 12:04:12
ELMER SOLVER (v 9.0) STARTED AT: 2021/04/14 12:04:12
ELMER SOLVER (v 9.0) STARTED AT: 2021/04/14 12:04:12
ELMER SOLVER (v 9.0) STARTED AT: 2021/04/14 12:04:12
ELMER SOLVER (v 9.0) STARTED AT: 2021/04/14 12:04:12
ELMER SOLVER (v 9.0) STARTED AT: 2021/04/14 12:04:12
ELMER SOLVER (v 9.0) STARTED AT: 2021/04/14 12:04:12
ELMER SOLVER (v 9.0) STARTED AT: 2021/04/14 12:04:12
ELMER SOLVER (v 9.0) STARTED AT: 2021/04/14 12:04:12
ELMER SOLVER (v 9.0) STARTED AT: 2021/04/14 12:04:12
ELMER SOLVER (v 9.0) STARTED AT: 2021/04/14 12:04:12
ELMER SOLVER (v 9.0) STARTED AT: 2021/04/14 12:04:12
ELMER SOLVER (v 9.0) STARTED AT: 2021/04/14 12:04:12
ELMER SOLVER (v 9.0) STARTED AT: 2021/04/14 12:04:12
ELMER SOLVER (v 9.0) STARTED AT: 2021/04/14 12:04:12
ELMER SOLVER (v 9.0) STARTED AT: 2021/04/14 12:04:12
ELMER SOLVER (v 9.0) STARTED AT: 2021/04/14 12:04:12
ELMER SOLVER (v 9.0) STARTED AT: 2021/04/14 12:04:12
ELMER SOLVER (v 9.0) STARTED AT: 2021/04/14 12:04:12
ParCommInit:  Initialize #PEs:          128
ParCommInit:  Initialize #PEs:          128
ParCommInit:  Initialize #PEs:          128
ParCommInit:  Initialize #PEs:          128
ParCommInit:  Initialize #PEs:          128
ParCommInit:  Initialize #PEs:          128
ParCommInit:  Initialize #PEs:          128
ParCommInit:  Initialize #PEs:          128
ParCommInit:  Initialize #PEs:          128
ParCommInit:  Initialize #PEs:          128
ParCommInit:  Initialize #PEs:          128
ParCommInit:  Initialize #PEs:          128
ParCommInit:  Initialize #PEs:          128
ParCommInit:  Initialize #PEs:          128
ParCommInit:  Initialize #PEs:          128
ParCommInit:  Initialize #PEs:          128
ParCommInit:  Initialize #PEs:          128
ParCommInit:  Initialize #PEs:          128
ParCommInit:  Initialize #PEs:          128
ParCommInit:  Initialize #PEs:          128
ParCommInit:  Initialize #PEs:          128
ParCommInit:  Initialize #PEs:          128
ParCommInit:  Initialize #PEs:          128
ParCommInit:  Initialize #PEs:          128
ParCommInit:  Initialize #PEs:          128
ParCommInit:  Initialize #PEs:          128
ParCommInit:  Initialize #PEs:          128
ParCommInit:  Initialize #PEs:          128
ParCommInit:  Initialize #PEs:          128
ParCommInit:  Initialize #PEs:          128
ParCommInit:  Initialize #PEs:          128
ParCommInit:  Initialize #PEs:          128
ParCommInit:  Initialize #PEs:          128
ParCommInit:  Initialize #PEs:          128
ParCommInit:  Initialize #PEs:          128
ParCommInit:  Initialize #PEs:          128
ParCommInit:  Initialize #PEs:          128
ParCommInit:  Initialize #PEs:          128
ParCommInit:  Initialize #PEs:          128
ParCommInit:  Initialize #PEs:          128
ParCommInit:  Initialize #PEs:          128
ParCommInit:  Initialize #PEs:          128
ParCommInit:  Initialize #PEs:          128
ParCommInit:  Initialize #PEs:          128
ParCommInit:  Initialize #PEs:          128
ParCommInit:  Initialize #PEs:          128
ParCommInit:  Initialize #PEs:          128
ParCommInit:  Initialize #PEs:          128
ParCommInit:  Initialize #PEs:          128
ParCommInit:  Initialize #PEs:          128
ParCommInit:  Initialize #PEs:          128
ParCommInit:  Initialize #PEs:          128
ParCommInit:  Initialize #PEs:          128
ParCommInit:  Initialize #PEs:          128
ParCommInit:  Initialize #PEs:          128
ParCommInit:  Initialize #PEs:          128
ParCommInit:  Initialize #PEs:          128
ParCommInit:  Initialize #PEs:          128
ParCommInit:  Initialize #PEs:          128
ParCommInit:  Initialize #PEs:          128
ParCommInit:  Initialize #PEs:          128
ParCommInit:  Initialize #PEs:          128
ParCommInit:  Initialize #PEs:          128
ParCommInit:  Initialize #PEs:          128
ParCommInit:  Initialize #PEs:          128
ParCommInit:  Initialize #PEs:          128
ParCommInit:  Initialize #PEs:          128
ParCommInit:  Initialize #PEs:          128
ParCommInit:  Initialize #PEs:          128
ParCommInit:  Initialize #PEs:          128
ParCommInit:  Initialize #PEs:          128
ParCommInit:  Initialize #PEs:          128
ParCommInit:  Initialize #PEs:          128
ParCommInit:  Initialize #PEs:          128
ParCommInit:  Initialize #PEs:          128
ParCommInit:  Initialize #PEs:          128
ParCommInit:  Initialize #PEs:          128
ParCommInit:  Initialize #PEs:          128
ParCommInit:  Initialize #PEs:          128
ParCommInit:  Initialize #PEs:          128
ParCommInit:  Initialize #PEs:          128
ParCommInit:  Initialize #PEs:          128
ParCommInit:  Initialize #PEs:          128
ParCommInit:  Initialize #PEs:          128
ParCommInit:  Initialize #PEs:          128
ParCommInit:  Initialize #PEs:          128
ParCommInit:  Initialize #PEs:          128
ParCommInit:  Initialize #PEs:          128
ParCommInit:  Initialize #PEs:          128
ParCommInit:  Initialize #PEs:          128
ParCommInit:  Initialize #PEs:          128
ParCommInit:  Initialize #PEs:          128
ParCommInit:  Initialize #PEs:          128
ParCommInit:  Initialize #PEs:          128
ParCommInit:  Initialize #PEs:          128
ParCommInit:  Initialize #PEs:          128
ParCommInit:  Initialize #PEs:          128
ParCommInit:  Initialize #PEs:          128
ParCommInit:  Initialize #PEs:          128
ParCommInit:  Initialize #PEs:          128
ParCommInit:  Initialize #PEs:          128
ParCommInit:  Initialize #PEs:          128
ParCommInit:  Initialize #PEs:          128
ParCommInit:  Initialize #PEs:          128
ParCommInit:  Initialize #PEs:          128
ParCommInit:  Initialize #PEs:          128
ParCommInit:  Initialize #PEs:          128
ParCommInit:  Initialize #PEs:          128
ParCommInit:  Initialize #PEs:          128
ParCommInit:  Initialize #PEs:          128
ParCommInit:  Initialize #PEs:          128
ParCommInit:  Initialize #PEs:          128
ParCommInit:  Initialize #PEs:          128
ParCommInit:  Initialize #PEs:          128
ParCommInit:  Initialize #PEs:          128
ParCommInit:  Initialize #PEs:          128
ParCommInit:  Initialize #PEs:          128
ParCommInit:  Initialize #PEs:          128
ParCommInit:  Initialize #PEs:          128
ParCommInit:  Initialize #PEs:          128
ParCommInit:  Initialize #PEs:          128
ParCommInit:  Initialize #PEs:          128
ParCommInit:  Initialize #PEs:          128
ParCommInit:  Initialize #PEs:          128
ParCommInit:  Initialize #PEs:          128
ParCommInit:  Initialize #PEs:          128
ParCommInit:  Initialize #PEs:          128
ParCommInit:  Initialize #PEs:          128
MAIN: 
MAIN: =============================================================
MAIN: ElmerSolver finite element software, Welcome!
MAIN: This program is free software licensed under (L)GPL
MAIN: Copyright 1st April 1995 - , CSC - IT Center for Science Ltd.
MAIN: Webpage http://www.csc.fi/elmer, Email elmeradm@csc.fi
MAIN: Version: 9.0 (Rev: a114c28, Compiled: 2021-04-03)
MAIN:  Running in parallel using 128 tasks.
MAIN:  Running with just one thread per task.
MAIN:  HYPRE library linked in.
MAIN:  MUMPS library linked in.
MAIN:  Lua interpreted linked in.
MAIN:  Zoltan library linked in.
MAIN: =============================================================
LoadInputFile: Trying to read "Run Control" section only
MAIN: 
MAIN: 
MAIN: -------------------------------------
MAIN: Reading Model: TG_bd_mu_inverse.sif
LoadInputFile: Scanning input file: TG_bd_mu_inverse.sif
LoadInputFile: Scanning only size info
LoadInputFile: First time visiting
LoadInputFile: Reading base load of sif file
ERROR:: LoadInputFile: 
ERROR:: LoadInputFile:  Unknown specifier: [depth]
ERROR:: LoadInputFile:  In section: [simulation]
ERROR:: LoadInputFile:  For property name:[restart variable 11]
ERROR:: LoadInputFile: 
ERROR:: LoadInputFile:  Unknown specifier: [depth]
ERROR:: LoadInputFile:  In section: [simulation]
ERROR:: LoadInputFile:  For property name:[restart variable 11]
ERROR:: LoadInputFile: 
ERROR:: LoadInputFile:  Unknown specifier: [depth]
ERROR:: LoadInputFile:  In section: [simulation]
ERROR:: LoadInputFile:  For property name:[restart variable 11]
ERROR:: LoadInputFile: 
ERROR:: LoadInputFile:  Unknown specifier: [depth]
ERROR:: LoadInputFile:  In section: [simulation]
ERROR:: LoadInputFile:  For property name:[restart variable 11]
ERROR:: LoadInputFile: 
ERROR:: LoadInputFile:  Unknown specifier: [depth]
ERROR:: LoadInputFile:  In section: [simulation]
ERROR:: LoadInputFile:  For property name:[restart variable 11]
ERROR:: LoadInputFile: 
ERROR:: LoadInputFile:  Unknown specifier: [depth]
ERROR:: LoadInputFile:  In section: [simulation]
ERROR:: LoadInputFile:  For property name:[restart variable 11]
ERROR:: LoadInputFile: 
ERROR:: LoadInputFile:  Unknown specifier: [depth]
ERROR:: LoadInputFile:  In section: [simulation]
ERROR:: LoadInputFile:  For property name:[restart variable 11]
ERROR:: LoadInputFile: 
ERROR:: LoadInputFile:  Unknown specifier: [depth]
ERROR:: LoadInputFile:  In section: [simulation]
ERROR:: LoadInputFile:  For property name:[restart variable 11]
ERROR:: LoadInputFile: 
ERROR:: LoadInputFile:  Unknown specifier: [depth]
ERROR:: LoadInputFile:  In section: [simulation]
ERROR:: LoadInputFile:  For property name:[restart variable 11]
ERROR:: LoadInputFile: 
ERROR:: LoadInputFile:  Unknown specifier: [depth]
ERROR:: LoadInputFile:  In section: [simulation]
ERROR:: LoadInputFile:  For property name:[restart variable 11]
ERROR:: LoadInputFile: 
ERROR:: LoadInputFile:  Unknown specifier: [depth]
ERROR:: LoadInputFile:  In section: [simulation]
ERROR:: LoadInputFile:  For property name:[restart variable 11]
ERROR:: LoadInputFile: 
ERROR:: LoadInputFile:  Unknown specifier: [depth]
ERROR:: LoadInputFile:  In section: [simulation]
ERROR:: LoadInputFile:  For property name:[restart variable 11]
ERROR:: LoadInputFile: 
ERROR:: LoadInputFile:  Unknown specifier: [depth]
ERROR:: LoadInputFile:  In section: [simulation]
ERROR:: LoadInputFile:  For property name:[restart variable 11]
ERROR:: LoadInputFile: 
ERROR:: LoadInputFile:  Unknown specifier: [depth]
ERROR:: LoadInputFile:  In section: [simulation]
ERROR:: LoadInputFile:  For property name:[restart variable 11]
ERROR:: LoadInputFile: 
ERROR:: LoadInputFile:  Unknown specifier: [depth]
ERROR:: LoadInputFile:  In section: [simulation]
ERROR:: LoadInputFile:  For property name:[restart variable 11]
ERROR:: LoadInputFile: 
ERROR:: LoadInputFile:  Unknown specifier: [depth]
ERROR:: LoadInputFile:  In section: [simulation]
ERROR:: LoadInputFile:  For property name:[restart variable 11]
ERROR:: LoadInputFile: 
ERROR:: LoadInputFile:  Unknown specifier: [depth]
ERROR:: LoadInputFile:  In section: [simulation]
ERROR:: LoadInputFile:  For property name:[restart variable 11]
ERROR:: LoadInputFile: 
ERROR:: LoadInputFile:  Unknown specifier: [depth]
ERROR:: LoadInputFile:  In section: [simulation]
ERROR:: LoadInputFile:  For property name:[restart variable 11]
ERROR:: LoadInputFile: 
ERROR:: LoadInputFile:  Unknown specifier: [depth]
ERROR:: LoadInputFile:  In section: [simulation]
ERROR:: LoadInputFile:  For property name:[restart variable 11]
ERROR:: LoadInputFile: 
ERROR:: LoadInputFile:  Unknown specifier: [depth]
ERROR:: LoadInputFile:  In section: [simulation]
ERROR:: LoadInputFile:  For property name:[restart variable 11]
ERROR:: LoadInputFile: 
ERROR:: LoadInputFile:  Unknown specifier: [depth]
ERROR:: LoadInputFile:  In section: [simulation]
ERROR:: LoadInputFile:  For property name:[restart variable 11]
ERROR:: LoadInputFile: 
ERROR:: LoadInputFile:  Unknown specifier: [depth]
ERROR:: LoadInputFile:  In section: [simulation]
ERROR:: LoadInputFile:  For property name:[restart variable 11]
ERROR:: LoadInputFile: 
ERROR:: LoadInputFile:  Unknown specifier: [depth]
ERROR:: LoadInputFile:  In section: [simulation]
ERROR:: LoadInputFile:  For property name:[restart variable 11]
ERROR:: LoadInputFile: 
ERROR:: LoadInputFile:  Unknown specifier: [depth]
ERROR:: LoadInputFile:  In section: [simulation]
ERROR:: LoadInputFile:  For property name:[restart variable 11]
ERROR:: LoadInputFile: 
ERROR:: LoadInputFile:  Unknown specifier: [depth]
ERROR:: LoadInputFile:  In section: [simulation]
ERROR:: LoadInputFile:  For property name:[restart variable 11]
ERROR:: LoadInputFile: 
ERROR:: LoadInputFile:  Unknown specifier: [depth]
ERROR:: LoadInputFile:  In section: [simulation]
ERROR:: LoadInputFile:  For property name:[restart variable 11]
ERROR:: LoadInputFile: 
ERROR:: LoadInputFile:  Unknown specifier: [depth]
ERROR:: LoadInputFile:  In section: [simulation]
ERROR:: LoadInputFile:  For property name:[restart variable 11]
ERROR:: LoadInputFile: 
ERROR:: LoadInputFile:  Unknown specifier: [depth]
ERROR:: LoadInputFile:  In section: [simulation]
ERROR:: LoadInputFile:  For property name:[restart variable 11]
ERROR:: LoadInputFile: 
ERROR:: LoadInputFile:  Unknown specifier: [depth]
ERROR:: LoadInputFile:  In section: [simulation]
ERROR:: LoadInputFile:  For property name:[restart variable 11]
ERROR:: LoadInputFile: 
ERROR:: LoadInputFile:  Unknown specifier: [depth]
ERROR:: LoadInputFile:  In section: [simulation]
ERROR:: LoadInputFile:  For property name:[restart variable 11]
ERROR:: LoadInputFile: 
ERROR:: LoadInputFile:  Unknown specifier: [depth]
ERROR:: LoadInputFile:  In section: [simulation]
ERROR:: LoadInputFile:  For property name:[restart variable 11]
ERROR:: LoadInputFile: 
ERROR:: LoadInputFile:  Unknown specifier: [depth]
ERROR:: LoadInputFile:  In section: [simulation]
ERROR:: LoadInputFile:  For property name:[restart variable 11]
ERROR:: LoadInputFile: 
ERROR:: LoadInputFile:  Unknown specifier: [depth]
ERROR:: LoadInputFile:  In section: [simulation]
ERROR:: LoadInputFile:  For property name:[restart variable 11]
ERROR:: LoadInputFile: 
ERROR:: LoadInputFile:  Unknown specifier: [depth]
ERROR:: LoadInputFile:  In section: [simulation]
ERROR:: LoadInputFile:  For property name:[restart variable 11]
ERROR:: LoadInputFile: 
ERROR:: LoadInputFile:  Unknown specifier: [depth]
ERROR:: LoadInputFile:  In section: [simulation]
ERROR:: LoadInputFile:  For property name:[restart variable 11]
ERROR:: LoadInputFile: 
ERROR:: LoadInputFile:  Unknown specifier: [depth]
ERROR:: LoadInputFile:  In section: [simulation]
ERROR:: LoadInputFile:  For property name:[restart variable 11]
ERROR:: LoadInputFile: 
ERROR:: LoadInputFile:  Unknown specifier: [depth]
ERROR:: LoadInputFile:  In section: [simulation]
ERROR:: LoadInputFile:  For property name:[restart variable 11]
ERROR:: LoadInputFile: 
ERROR:: LoadInputFile:  Unknown specifier: [depth]
ERROR:: LoadInputFile:  In section: [simulation]
ERROR:: LoadInputFile:  For property name:[restart variable 11]
ERROR:: LoadInputFile: 
ERROR:: LoadInputFile:  Unknown specifier: [depth]
ERROR:: LoadInputFile:  In section: [simulation]
ERROR:: LoadInputFile:  For property name:[restart variable 11]
ERROR:: LoadInputFile: 
ERROR:: LoadInputFile:  Unknown specifier: [depth]
ERROR:: LoadInputFile:  In section: [simulation]
ERROR:: LoadInputFile:  For property name:[restart variable 11]
ERROR:: LoadInputFile: 
ERROR:: LoadInputFile:  Unknown specifier: [depth]
ERROR:: LoadInputFile:  In section: [simulation]
ERROR:: LoadInputFile:  For property name:[restart variable 11]
ERROR:: LoadInputFile: 
ERROR:: LoadInputFile:  Unknown specifier: [depth]
ERROR:: LoadInputFile:  In section: [simulation]
ERROR:: LoadInputFile:  For property name:[restart variable 11]
ERROR:: LoadInputFile: 
ERROR:: LoadInputFile:  Unknown specifier: [depth]
ERROR:: LoadInputFile:  In section: [simulation]
ERROR:: LoadInputFile:  For property name:[restart variable 11]
ERROR:: LoadInputFile: 
ERROR:: LoadInputFile:  Unknown specifier: [depth]
ERROR:: LoadInputFile:  In section: [simulation]
ERROR:: LoadInputFile:  For property name:[restart variable 11]
ERROR:: LoadInputFile: 
ERROR:: LoadInputFile:  Unknown specifier: [depth]
ERROR:: LoadInputFile:  In section: [simulation]
ERROR:: LoadInputFile:  For property name:[restart variable 11]
ERROR:: LoadInputFile: 
ERROR:: LoadInputFile:  Unknown specifier: [depth]
ERROR:: LoadInputFile:  In section: [simulation]
ERROR:: LoadInputFile:  For property name:[restart variable 11]
ERROR:: LoadInputFile: 
ERROR:: LoadInputFile:  Unknown specifier: [depth]
ERROR:: LoadInputFile:  In section: [simulation]
ERROR:: LoadInputFile:  For property name:[restart variable 11]
ERROR:: LoadInputFile: 
ERROR:: LoadInputFile:  Unknown specifier: [depth]
ERROR:: LoadInputFile:  In section: [simulation]
ERROR:: LoadInputFile:  For property name:[restart variable 11]
ERROR:: LoadInputFile: 
ERROR:: LoadInputFile:  Unknown specifier: [depth]
ERROR:: LoadInputFile:  In section: [simulation]
ERROR:: LoadInputFile:  For property name:[restart variable 11]
ERROR:: LoadInputFile: 
ERROR:: LoadInputFile:  Unknown specifier: [depth]
ERROR:: LoadInputFile:  In section: [simulation]
ERROR:: LoadInputFile:  For property name:[restart variable 11]
ERROR:: LoadInputFile: 
ERROR:: LoadInputFile:  Unknown specifier: [depth]
ERROR:: LoadInputFile:  In section: [simulation]
ERROR:: LoadInputFile:  For property name:[restart variable 11]
ERROR:: LoadInputFile: 
ERROR:: LoadInputFile:  Unknown specifier: [depth]
ERROR:: LoadInputFile:  In section: [simulation]
ERROR:: LoadInputFile:  For property name:[restart variable 11]
ERROR:: LoadInputFile: 
ERROR:: LoadInputFile:  Unknown specifier: [depth]
ERROR:: LoadInputFile:  In section: [simulation]
ERROR:: LoadInputFile:  For property name:[restart variable 11]
ERROR:: LoadInputFile: 
ERROR:: LoadInputFile:  Unknown specifier: [depth]
ERROR:: LoadInputFile:  In section: [simulation]
ERROR:: LoadInputFile:  For property name:[restart variable 11]
ERROR:: LoadInputFile: 
ERROR:: LoadInputFile:  Unknown specifier: [depth]
ERROR:: LoadInputFile:  In section: [simulation]
ERROR:: LoadInputFile:  For property name:[restart variable 11]
ERROR:: LoadInputFile: 
ERROR:: LoadInputFile:  Unknown specifier: [depth]
ERROR:: LoadInputFile:  In section: [simulation]
ERROR:: LoadInputFile:  For property name:[restart variable 11]
ERROR:: LoadInputFile: 
ERROR:: LoadInputFile:  Unknown specifier: [depth]
ERROR:: LoadInputFile:  In section: [simulation]
ERROR:: LoadInputFile:  For property name:[restart variable 11]
ERROR:: LoadInputFile: 
ERROR:: LoadInputFile:  Unknown specifier: [depth]
ERROR:: LoadInputFile:  In section: [simulation]
ERROR:: LoadInputFile:  For property name:[restart variable 11]
ERROR:: LoadInputFile: 
ERROR:: LoadInputFile:  Unknown specifier: [depth]
ERROR:: LoadInputFile:  In section: [simulation]
ERROR:: LoadInputFile:  For property name:[restart variable 11]
ERROR:: LoadInputFile: 
ERROR:: LoadInputFile:  Unknown specifier: [depth]
ERROR:: LoadInputFile:  In section: [simulation]
ERROR:: LoadInputFile:  For property name:[restart variable 11]
ERROR:: LoadInputFile: 
ERROR:: LoadInputFile:  Unknown specifier: [depth]
ERROR:: LoadInputFile:  In section: [simulation]
ERROR:: LoadInputFile:  For property name:[restart variable 11]
ERROR:: LoadInputFile: 
ERROR:: LoadInputFile:  Unknown specifier: [depth]
ERROR:: LoadInputFile:  In section: [simulation]
ERROR:: LoadInputFile:  For property name:[restart variable 11]
ERROR:: LoadInputFile: 
ERROR:: LoadInputFile:  Unknown specifier: [depth]
ERROR:: LoadInputFile:  In section: [simulation]
ERROR:: LoadInputFile:  For property name:[restart variable 11]
ERROR:: LoadInputFile: 
ERROR:: LoadInputFile:  Unknown specifier: [depth]
ERROR:: LoadInputFile:  In section: [simulation]
ERROR:: LoadInputFile:  For property name:[restart variable 11]
ERROR:: LoadInputFile: 
ERROR:: LoadInputFile:  Unknown specifier: [depth]
ERROR:: LoadInputFile:  In section: [simulation]
ERROR:: LoadInputFile:  For property name:[restart variable 11]
ERROR:: LoadInputFile: 
ERROR:: LoadInputFile:  Unknown specifier: [depth]
ERROR:: LoadInputFile:  In section: [simulation]
ERROR:: LoadInputFile:  For property name:[restart variable 11]
ERROR:: LoadInputFile: 
ERROR:: LoadInputFile:  Unknown specifier: [depth]
ERROR:: LoadInputFile:  In section: [simulation]
ERROR:: LoadInputFile:  For property name:[restart variable 11]
ERROR:: LoadInputFile: 
ERROR:: LoadInputFile:  Unknown specifier: [depth]
ERROR:: LoadInputFile:  In section: [simulation]
ERROR:: LoadInputFile:  For property name:[restart variable 11]
ERROR:: LoadInputFile: 
ERROR:: LoadInputFile:  Unknown specifier: [depth]
ERROR:: LoadInputFile:  In section: [simulation]
ERROR:: LoadInputFile:  For property name:[restart variable 11]
ERROR:: LoadInputFile: 
ERROR:: LoadInputFile:  Unknown specifier: [depth]
ERROR:: LoadInputFile:  In section: [simulation]
ERROR:: LoadInputFile:  For property name:[restart variable 11]
ERROR:: LoadInputFile: 
ERROR:: LoadInputFile:  Unknown specifier: [depth]
ERROR:: LoadInputFile:  In section: [simulation]
ERROR:: LoadInputFile:  For property name:[restart variable 11]
ERROR:: LoadInputFile: 
ERROR:: LoadInputFile:  Unknown specifier: [depth]
ERROR:: LoadInputFile:  In section: [simulation]
ERROR:: LoadInputFile:  For property name:[restart variable 11]
ERROR:: LoadInputFile: 
ERROR:: LoadInputFile:  Unknown specifier: [depth]
ERROR:: LoadInputFile:  In section: [simulation]
ERROR:: LoadInputFile:  For property name:[restart variable 11]
ERROR:: LoadInputFile: 
ERROR:: LoadInputFile:  Unknown specifier: [depth]
ERROR:: LoadInputFile:  In section: [simulation]
ERROR:: LoadInputFile:  For property name:[restart variable 11]
ERROR:: LoadInputFile: 
ERROR:: LoadInputFile:  Unknown specifier: [depth]
ERROR:: LoadInputFile:  In section: [simulation]
ERROR:: LoadInputFile:  For property name:[restart variable 11]
ERROR:: LoadInputFile: 
ERROR:: LoadInputFile:  Unknown specifier: [depth]
ERROR:: LoadInputFile:  In section: [simulation]
ERROR:: LoadInputFile:  For property name:[restart variable 11]
ERROR:: LoadInputFile: 
ERROR:: LoadInputFile:  Unknown specifier: [depth]
ERROR:: LoadInputFile:  In section: [simulation]
ERROR:: LoadInputFile:  For property name:[restart variable 11]
ERROR:: LoadInputFile: 
ERROR:: LoadInputFile:  Unknown specifier: [depth]
ERROR:: LoadInputFile:  In section: [simulation]
ERROR:: LoadInputFile:  For property name:[restart variable 11]
ERROR:: LoadInputFile: 
ERROR:: LoadInputFile:  Unknown specifier: [depth]
ERROR:: LoadInputFile:  In section: [simulation]
ERROR:: LoadInputFile:  For property name:[restart variable 11]
ERROR:: LoadInputFile: 
ERROR:: LoadInputFile:  Unknown specifier: [depth]
ERROR:: LoadInputFile:  In section: [simulation]
ERROR:: LoadInputFile:  For property name:[restart variable 11]
ERROR:: LoadInputFile: 
ERROR:: LoadInputFile:  Unknown specifier: [depth]
ERROR:: LoadInputFile:  In section: [simulation]
ERROR:: LoadInputFile:  For property name:[restart variable 11]
ERROR:: LoadInputFile: 
ERROR:: LoadInputFile:  Unknown specifier: [depth]
ERROR:: LoadInputFile:  In section: [simulation]
ERROR:: LoadInputFile:  For property name:[restart variable 11]
ERROR:: LoadInputFile: 
ERROR:: LoadInputFile:  Unknown specifier: [depth]
ERROR:: LoadInputFile:  In section: [simulation]
ERROR:: LoadInputFile:  For property name:[restart variable 11]
ERROR:: LoadInputFile: 
ERROR:: LoadInputFile:  Unknown specifier: [depth]
ERROR:: LoadInputFile:  In section: [simulation]
ERROR:: LoadInputFile:  For property name:[restart variable 11]
ERROR:: LoadInputFile: 
ERROR:: LoadInputFile:  Unknown specifier: [depth]
ERROR:: LoadInputFile:  In section: [simulation]
ERROR:: LoadInputFile:  For property name:[restart variable 11]
ERROR:: LoadInputFile: 
ERROR:: LoadInputFile:  Unknown specifier: [depth]
ERROR:: LoadInputFile:  In section: [simulation]
ERROR:: LoadInputFile:  For property name:[restart variable 11]
ERROR:: LoadInputFile: 
ERROR:: LoadInputFile:  Unknown specifier: [depth]
ERROR:: LoadInputFile:  In section: [simulation]
ERROR:: LoadInputFile:  For property name:[restart variable 11]
ERROR:: LoadInputFile: 
ERROR:: LoadInputFile:  Unknown specifier: [depth]
ERROR:: LoadInputFile:  In section: [simulation]
ERROR:: LoadInputFile:  For property name:[restart variable 11]
ERROR:: LoadInputFile: 
ERROR:: LoadInputFile:  Unknown specifier: [depth]
ERROR:: LoadInputFile:  In section: [simulation]
ERROR:: LoadInputFile:  For property name:[restart variable 11]
ERROR:: LoadInputFile: 
ERROR:: LoadInputFile:  Unknown specifier: [depth]
ERROR:: LoadInputFile:  In section: [simulation]
ERROR:: LoadInputFile:  For property name:[restart variable 11]
ERROR:: LoadInputFile: 
ERROR:: LoadInputFile:  Unknown specifier: [depth]
ERROR:: LoadInputFile:  In section: [simulation]
ERROR:: LoadInputFile:  For property name:[restart variable 11]
ERROR:: LoadInputFile: 
ERROR:: LoadInputFile:  Unknown specifier: [depth]
ERROR:: LoadInputFile:  In section: [simulation]
ERROR:: LoadInputFile:  For property name:[restart variable 11]
ERROR:: LoadInputFile: 
ERROR:: LoadInputFile:  Unknown specifier: [depth]
ERROR:: LoadInputFile:  In section: [simulation]
ERROR:: LoadInputFile:  For property name:[restart variable 11]
ERROR:: LoadInputFile: 
ERROR:: LoadInputFile:  Unknown specifier: [depth]
ERROR:: LoadInputFile:  In section: [simulation]
ERROR:: LoadInputFile:  For property name:[restart variable 11]
ERROR:: LoadInputFile: 
ERROR:: LoadInputFile:  Unknown specifier: [depth]
ERROR:: LoadInputFile:  In section: [simulation]
ERROR:: LoadInputFile:  For property name:[restart variable 11]
ERROR:: LoadInputFile: 
ERROR:: LoadInputFile:  Unknown specifier: [depth]
ERROR:: LoadInputFile:  In section: [simulation]
ERROR:: LoadInputFile:  For property name:[restart variable 11]
ERROR:: LoadInputFile: 
ERROR:: LoadInputFile:  Unknown specifier: [depth]
ERROR:: LoadInputFile:  In section: [simulation]
ERROR:: LoadInputFile:  For property name:[restart variable 11]
ERROR:: LoadInputFile: 
ERROR:: LoadInputFile:  Unknown specifier: [depth]
ERROR:: LoadInputFile:  In section: [simulation]
ERROR:: LoadInputFile:  For property name:[restart variable 11]
ERROR:: LoadInputFile: 
ERROR:: LoadInputFile:  Unknown specifier: [depth]
ERROR:: LoadInputFile:  In section: [simulation]
ERROR:: LoadInputFile:  For property name:[restart variable 11]
ERROR:: LoadInputFile: 
ERROR:: LoadInputFile:  Unknown specifier: [depth]
ERROR:: LoadInputFile:  In section: [simulation]
ERROR:: LoadInputFile:  For property name:[restart variable 11]
ERROR:: LoadInputFile: 
ERROR:: LoadInputFile:  Unknown specifier: [depth]
ERROR:: LoadInputFile:  In section: [simulation]
ERROR:: LoadInputFile:  For property name:[restart variable 11]
ERROR:: LoadInputFile: 
ERROR:: LoadInputFile:  Unknown specifier: [depth]
ERROR:: LoadInputFile:  In section: [simulation]
ERROR:: LoadInputFile:  For property name:[restart variable 11]
ERROR:: LoadInputFile: 
ERROR:: LoadInputFile:  Unknown specifier: [depth]
ERROR:: LoadInputFile:  In section: [simulation]
ERROR:: LoadInputFile:  For property name:[restart variable 11]
ERROR:: LoadInputFile: 
ERROR:: LoadInputFile:  Unknown specifier: [depth]
ERROR:: LoadInputFile:  In section: [simulation]
ERROR:: LoadInputFile:  For property name:[restart variable 11]
ERROR:: LoadInputFile: 
ERROR:: LoadInputFile:  Unknown specifier: [depth]
ERROR:: LoadInputFile:  In section: [simulation]
ERROR:: LoadInputFile:  For property name:[restart variable 11]
ERROR:: LoadInputFile: 
ERROR:: LoadInputFile:  Unknown specifier: [depth]
ERROR:: LoadInputFile:  In section: [simulation]
ERROR:: LoadInputFile:  For property name:[restart variable 11]
ERROR:: LoadInputFile: 
ERROR:: LoadInputFile:  Unknown specifier: [depth]
ERROR:: LoadInputFile:  In section: [simulation]
ERROR:: LoadInputFile:  For property name:[restart variable 11]
ERROR:: LoadInputFile: 
ERROR:: LoadInputFile:  Unknown specifier: [depth]
ERROR:: LoadInputFile:  In section: [simulation]
ERROR:: LoadInputFile:  For property name:[restart variable 11]
ERROR:: LoadInputFile: 
ERROR:: LoadInputFile:  Unknown specifier: [depth]
ERROR:: LoadInputFile:  In section: [simulation]
ERROR:: LoadInputFile:  For property name:[restart variable 11]
ERROR:: LoadInputFile: 
ERROR:: LoadInputFile:  Unknown specifier: [depth]
ERROR:: LoadInputFile:  In section: [simulation]
ERROR:: LoadInputFile:  For property name:[restart variable 11]
ERROR:: LoadInputFile: 
ERROR:: LoadInputFile:  Unknown specifier: [depth]
ERROR:: LoadInputFile:  In section: [simulation]
ERROR:: LoadInputFile:  For property name:[restart variable 11]
ERROR:: LoadInputFile: 
ERROR:: LoadInputFile:  Unknown specifier: [depth]
ERROR:: LoadInputFile:  In section: [simulation]
ERROR:: LoadInputFile:  For property name:[restart variable 11]
ERROR:: LoadInputFile: 
ERROR:: LoadInputFile:  Unknown specifier: [depth]
ERROR:: LoadInputFile:  In section: [simulation]
ERROR:: LoadInputFile:  For property name:[restart variable 11]
ERROR:: LoadInputFile: 
ERROR:: LoadInputFile:  Unknown specifier: [depth]
ERROR:: LoadInputFile:  In section: [simulation]
ERROR:: LoadInputFile:  For property name:[restart variable 11]
ERROR:: LoadInputFile: 
ERROR:: LoadInputFile:  Unknown specifier: [depth]
ERROR:: LoadInputFile:  In section: [simulation]
ERROR:: LoadInputFile:  For property name:[restart variable 11]
ERROR:: LoadInputFile: 
ERROR:: LoadInputFile:  Unknown specifier: [depth]
ERROR:: LoadInputFile:  In section: [simulation]
ERROR:: LoadInputFile:  For property name:[restart variable 11]
ERROR:: LoadInputFile: 
ERROR:: LoadInputFile:  Unknown specifier: [depth]
ERROR:: LoadInputFile:  In section: [simulation]
ERROR:: LoadInputFile:  For property name:[restart variable 11]
ERROR:: LoadInputFile: 
ERROR:: LoadInputFile:  Unknown specifier: [depth]
ERROR:: LoadInputFile:  In section: [simulation]
ERROR:: LoadInputFile:  For property name:[restart variable 11]
ERROR:: LoadInputFile: 
ERROR:: LoadInputFile:  Unknown specifier: [depth]
ERROR:: LoadInputFile:  In section: [simulation]
ERROR:: LoadInputFile:  For property name:[restart variable 11]
ERROR:: LoadInputFile: 
ERROR:: LoadInputFile:  Unknown specifier: [depth]
ERROR:: LoadInputFile:  In section: [simulation]
ERROR:: LoadInputFile:  For property name:[restart variable 11]
ERROR:: LoadInputFile: 
ERROR:: LoadInputFile:  Unknown specifier: [depth]
ERROR:: LoadInputFile:  In section: [simulation]
ERROR:: LoadInputFile:  For property name:[restart variable 11]
ERROR:: LoadInputFile: 
ERROR:: LoadInputFile:  Unknown specifier: [depth]
ERROR:: LoadInputFile:  In section: [simulation]
ERROR:: LoadInputFile:  For property name:[restart variable 11]
ERROR:: LoadInputFile: 
ERROR:: LoadInputFile:  Unknown specifier: [depth]
ERROR:: LoadInputFile:  In section: [simulation]
ERROR:: LoadInputFile:  For property name:[restart variable 11]
ERROR:: LoadInputFile: 
ERROR:: LoadInputFile:  Unknown specifier: [depth]
ERROR:: LoadInputFile:  In section: [simulation]
ERROR:: LoadInputFile:  For property name:[restart variable 11]
ERROR:: LoadInputFile: 
ERROR:: LoadInputFile:  Unknown specifier: [depth]
ERROR:: LoadInputFile:  In section: [simulation]
ERROR:: LoadInputFile:  For property name:[restart variable 11]
ERROR:: LoadInputFile: 
ERROR:: LoadInputFile:  Unknown specifier: [depth]
ERROR:: LoadInputFile:  In section: [simulation]
ERROR:: LoadInputFile:  For property name:[restart variable 11]
ERROR:: LoadInputFile: 
ERROR:: LoadInputFile:  Unknown specifier: [depth]
ERROR:: LoadInputFile:  In section: [simulation]
ERROR:: LoadInputFile:  For property name:[restart variable 11]
ERROR:: LoadInputFile: 
ERROR:: LoadInputFile:  Unknown specifier: [depth]
ERROR:: LoadInputFile:  In section: [simulation]
ERROR:: LoadInputFile:  For property name:[restart variable 11]
