ELMER SOLVER (v 8.4) STARTED AT: 2021/04/29 17:43:45
ELMER SOLVER (v 8.4) STARTED AT: 2021/04/29 17:43:45
ELMER SOLVER (v 8.4) STARTED AT: 2021/04/29 17:43:45
ELMER SOLVER (v 8.4) STARTED AT: 2021/04/29 17:43:45
ELMER SOLVER (v 8.4) STARTED AT: 2021/04/29 17:43:45
ELMER SOLVER (v 8.4) STARTED AT: 2021/04/29 17:43:45
ELMER SOLVER (v 8.4) STARTED AT: 2021/04/29 17:43:45
ELMER SOLVER (v 8.4) STARTED AT: 2021/04/29 17:43:45
ELMER SOLVER (v 8.4) STARTED AT: 2021/04/29 17:43:45
ELMER SOLVER (v 8.4) STARTED AT: 2021/04/29 17:43:45
ELMER SOLVER (v 8.4) STARTED AT: 2021/04/29 17:43:45
ELMER SOLVER (v 8.4) STARTED AT: 2021/04/29 17:43:45
ELMER SOLVER (v 8.4) STARTED AT: 2021/04/29 17:43:45
ELMER SOLVER (v 8.4) STARTED AT: 2021/04/29 17:43:45
ELMER SOLVER (v 8.4) STARTED AT: 2021/04/29 17:43:45
ELMER SOLVER (v 8.4) STARTED AT: 2021/04/29 17:43:45
ELMER SOLVER (v 8.4) STARTED AT: 2021/04/29 17:43:45
ELMER SOLVER (v 8.4) STARTED AT: 2021/04/29 17:43:45
ELMER SOLVER (v 8.4) STARTED AT: 2021/04/29 17:43:45
ELMER SOLVER (v 8.4) STARTED AT: 2021/04/29 17:43:45
ELMER SOLVER (v 8.4) STARTED AT: 2021/04/29 17:43:45
ELMER SOLVER (v 8.4) STARTED AT: 2021/04/29 17:43:45
ELMER SOLVER (v 8.4) STARTED AT: 2021/04/29 17:43:45
ELMER SOLVER (v 8.4) STARTED AT: 2021/04/29 17:43:45
ELMER SOLVER (v 8.4) STARTED AT: 2021/04/29 17:43:45
ELMER SOLVER (v 8.4) STARTED AT: 2021/04/29 17:43:45
ELMER SOLVER (v 8.4) STARTED AT: 2021/04/29 17:43:45
ELMER SOLVER (v 8.4) STARTED AT: 2021/04/29 17:43:45
ELMER SOLVER (v 8.4) STARTED AT: 2021/04/29 17:43:45
ELMER SOLVER (v 8.4) STARTED AT: 2021/04/29 17:43:45
ELMER SOLVER (v 8.4) STARTED AT: 2021/04/29 17:43:45
ELMER SOLVER (v 8.4) STARTED AT: 2021/04/29 17:43:45
ELMER SOLVER (v 8.4) STARTED AT: 2021/04/29 17:43:45
ELMER SOLVER (v 8.4) STARTED AT: 2021/04/29 17:43:45
ELMER SOLVER (v 8.4) STARTED AT: 2021/04/29 17:43:45
ELMER SOLVER (v 8.4) STARTED AT: 2021/04/29 17:43:45
ELMER SOLVER (v 8.4) STARTED AT: 2021/04/29 17:43:45
ELMER SOLVER (v 8.4) STARTED AT: 2021/04/29 17:43:45
ELMER SOLVER (v 8.4) STARTED AT: 2021/04/29 17:43:45
ELMER SOLVER (v 8.4) STARTED AT: 2021/04/29 17:43:45
ELMER SOLVER (v 8.4) STARTED AT: 2021/04/29 17:43:45
ELMER SOLVER (v 8.4) STARTED AT: 2021/04/29 17:43:45
ELMER SOLVER (v 8.4) STARTED AT: 2021/04/29 17:43:45
ELMER SOLVER (v 8.4) STARTED AT: 2021/04/29 17:43:45
ELMER SOLVER (v 8.4) STARTED AT: 2021/04/29 17:43:45
ELMER SOLVER (v 8.4) STARTED AT: 2021/04/29 17:43:45
ELMER SOLVER (v 8.4) STARTED AT: 2021/04/29 17:43:45
ELMER SOLVER (v 8.4) STARTED AT: 2021/04/29 17:43:45
ELMER SOLVER (v 8.4) STARTED AT: 2021/04/29 17:43:45
ELMER SOLVER (v 8.4) STARTED AT: 2021/04/29 17:43:45
ELMER SOLVER (v 8.4) STARTED AT: 2021/04/29 17:43:45
ELMER SOLVER (v 8.4) STARTED AT: 2021/04/29 17:43:45
ELMER SOLVER (v 8.4) STARTED AT: 2021/04/29 17:43:45
ELMER SOLVER (v 8.4) STARTED AT: 2021/04/29 17:43:45
ELMER SOLVER (v 8.4) STARTED AT: 2021/04/29 17:43:45
ELMER SOLVER (v 8.4) STARTED AT: 2021/04/29 17:43:45
ELMER SOLVER (v 8.4) STARTED AT: 2021/04/29 17:43:45
ELMER SOLVER (v 8.4) STARTED AT: 2021/04/29 17:43:45
ELMER SOLVER (v 8.4) STARTED AT: 2021/04/29 17:43:45
ELMER SOLVER (v 8.4) STARTED AT: 2021/04/29 17:43:45
ELMER SOLVER (v 8.4) STARTED AT: 2021/04/29 17:43:45
ELMER SOLVER (v 8.4) STARTED AT: 2021/04/29 17:43:45
ELMER SOLVER (v 8.4) STARTED AT: 2021/04/29 17:43:45
ELMER SOLVER (v 8.4) STARTED AT: 2021/04/29 17:43:45
ELMER SOLVER (v 8.4) STARTED AT: 2021/04/29 17:43:45
ELMER SOLVER (v 8.4) STARTED AT: 2021/04/29 17:43:45
ELMER SOLVER (v 8.4) STARTED AT: 2021/04/29 17:43:45
ELMER SOLVER (v 8.4) STARTED AT: 2021/04/29 17:43:45
ELMER SOLVER (v 8.4) STARTED AT: 2021/04/29 17:43:45
ELMER SOLVER (v 8.4) STARTED AT: 2021/04/29 17:43:45
ELMER SOLVER (v 8.4) STARTED AT: 2021/04/29 17:43:45
ELMER SOLVER (v 8.4) STARTED AT: 2021/04/29 17:43:45
ELMER SOLVER (v 8.4) STARTED AT: 2021/04/29 17:43:45
ELMER SOLVER (v 8.4) STARTED AT: 2021/04/29 17:43:45
ELMER SOLVER (v 8.4) STARTED AT: 2021/04/29 17:43:45
ELMER SOLVER (v 8.4) STARTED AT: 2021/04/29 17:43:45
ELMER SOLVER (v 8.4) STARTED AT: 2021/04/29 17:43:45
ELMER SOLVER (v 8.4) STARTED AT: 2021/04/29 17:43:45
ELMER SOLVER (v 8.4) STARTED AT: 2021/04/29 17:43:45
ELMER SOLVER (v 8.4) STARTED AT: 2021/04/29 17:43:45
ELMER SOLVER (v 8.4) STARTED AT: 2021/04/29 17:43:45
ELMER SOLVER (v 8.4) STARTED AT: 2021/04/29 17:43:45
ELMER SOLVER (v 8.4) STARTED AT: 2021/04/29 17:43:45
ELMER SOLVER (v 8.4) STARTED AT: 2021/04/29 17:43:45
ELMER SOLVER (v 8.4) STARTED AT: 2021/04/29 17:43:45
ELMER SOLVER (v 8.4) STARTED AT: 2021/04/29 17:43:45
ELMER SOLVER (v 8.4) STARTED AT: 2021/04/29 17:43:45
ELMER SOLVER (v 8.4) STARTED AT: 2021/04/29 17:43:45
ELMER SOLVER (v 8.4) STARTED AT: 2021/04/29 17:43:45
ELMER SOLVER (v 8.4) STARTED AT: 2021/04/29 17:43:45
ELMER SOLVER (v 8.4) STARTED AT: 2021/04/29 17:43:45
ELMER SOLVER (v 8.4) STARTED AT: 2021/04/29 17:43:45
ELMER SOLVER (v 8.4) STARTED AT: 2021/04/29 17:43:45
ELMER SOLVER (v 8.4) STARTED AT: 2021/04/29 17:43:45
ELMER SOLVER (v 8.4) STARTED AT: 2021/04/29 17:43:45
ELMER SOLVER (v 8.4) STARTED AT: 2021/04/29 17:43:45
ELMER SOLVER (v 8.4) STARTED AT: 2021/04/29 17:43:45
ELMER SOLVER (v 8.4) STARTED AT: 2021/04/29 17:43:45
ELMER SOLVER (v 8.4) STARTED AT: 2021/04/29 17:43:45
ELMER SOLVER (v 8.4) STARTED AT: 2021/04/29 17:43:45
ELMER SOLVER (v 8.4) STARTED AT: 2021/04/29 17:43:45
ELMER SOLVER (v 8.4) STARTED AT: 2021/04/29 17:43:45
ELMER SOLVER (v 8.4) STARTED AT: 2021/04/29 17:43:45
ELMER SOLVER (v 8.4) STARTED AT: 2021/04/29 17:43:45
ELMER SOLVER (v 8.4) STARTED AT: 2021/04/29 17:43:45
ELMER SOLVER (v 8.4) STARTED AT: 2021/04/29 17:43:45
ELMER SOLVER (v 8.4) STARTED AT: 2021/04/29 17:43:45
ELMER SOLVER (v 8.4) STARTED AT: 2021/04/29 17:43:45
ELMER SOLVER (v 8.4) STARTED AT: 2021/04/29 17:43:45
ELMER SOLVER (v 8.4) STARTED AT: 2021/04/29 17:43:45
ELMER SOLVER (v 8.4) STARTED AT: 2021/04/29 17:43:45
ELMER SOLVER (v 8.4) STARTED AT: 2021/04/29 17:43:45
ELMER SOLVER (v 8.4) STARTED AT: 2021/04/29 17:43:45
ELMER SOLVER (v 8.4) STARTED AT: 2021/04/29 17:43:45
ELMER SOLVER (v 8.4) STARTED AT: 2021/04/29 17:43:45
ELMER SOLVER (v 8.4) STARTED AT: 2021/04/29 17:43:45
ELMER SOLVER (v 8.4) STARTED AT: 2021/04/29 17:43:45
ELMER SOLVER (v 8.4) STARTED AT: 2021/04/29 17:43:45
ELMER SOLVER (v 8.4) STARTED AT: 2021/04/29 17:43:45
ELMER SOLVER (v 8.4) STARTED AT: 2021/04/29 17:43:45
ELMER SOLVER (v 8.4) STARTED AT: 2021/04/29 17:43:45
ELMER SOLVER (v 8.4) STARTED AT: 2021/04/29 17:43:45
ELMER SOLVER (v 8.4) STARTED AT: 2021/04/29 17:43:45
ELMER SOLVER (v 8.4) STARTED AT: 2021/04/29 17:43:45
ELMER SOLVER (v 8.4) STARTED AT: 2021/04/29 17:43:45
ELMER SOLVER (v 8.4) STARTED AT: 2021/04/29 17:43:45
ELMER SOLVER (v 8.4) STARTED AT: 2021/04/29 17:43:45
ELMER SOLVER (v 8.4) STARTED AT: 2021/04/29 17:43:45
ParCommInit:  Initialize #PEs:          128
ParCommInit:  Initialize #PEs:          128
ParCommInit:  Initialize #PEs:          128
ParCommInit:  Initialize #PEs:          128
ParCommInit:  Initialize #PEs:          128
ParCommInit:  Initialize #PEs:          128
ParCommInit:  Initialize #PEs:          128
ParCommInit:  Initialize #PEs:          128
ParCommInit:  Initialize #PEs:          128
ParCommInit:  Initialize #PEs:          128
ParCommInit:  Initialize #PEs:          128
ParCommInit:  Initialize #PEs:          128
ParCommInit:  Initialize #PEs:          128
ParCommInit:  Initialize #PEs:          128
ParCommInit:  Initialize #PEs:          128
ParCommInit:  Initialize #PEs:          128
ParCommInit:  Initialize #PEs:          128
ParCommInit:  Initialize #PEs:          128
ParCommInit:  Initialize #PEs:          128
ParCommInit:  Initialize #PEs:          128
ParCommInit:  Initialize #PEs:          128
ParCommInit:  Initialize #PEs:          128
ParCommInit:  Initialize #PEs:          128
ParCommInit:  Initialize #PEs:          128
ParCommInit:  Initialize #PEs:          128
ParCommInit:  Initialize #PEs:          128
ParCommInit:  Initialize #PEs:          128
ParCommInit:  Initialize #PEs:          128
ParCommInit:  Initialize #PEs:          128
ParCommInit:  Initialize #PEs:          128
ParCommInit:  Initialize #PEs:          128
ParCommInit:  Initialize #PEs:          128
ParCommInit:  Initialize #PEs:          128
ParCommInit:  Initialize #PEs:          128
ParCommInit:  Initialize #PEs:          128
ParCommInit:  Initialize #PEs:          128
ParCommInit:  Initialize #PEs:          128
ParCommInit:  Initialize #PEs:          128
ParCommInit:  Initialize #PEs:          128
ParCommInit:  Initialize #PEs:          128
ParCommInit:  Initialize #PEs:          128
ParCommInit:  Initialize #PEs:          128
ParCommInit:  Initialize #PEs:          128
ParCommInit:  Initialize #PEs:          128
ParCommInit:  Initialize #PEs:          128
ParCommInit:  Initialize #PEs:          128
ParCommInit:  Initialize #PEs:          128
ParCommInit:  Initialize #PEs:          128
ParCommInit:  Initialize #PEs:          128
ParCommInit:  Initialize #PEs:          128
ParCommInit:  Initialize #PEs:          128
ParCommInit:  Initialize #PEs:          128
ParCommInit:  Initialize #PEs:          128
ParCommInit:  Initialize #PEs:          128
ParCommInit:  Initialize #PEs:          128
ParCommInit:  Initialize #PEs:          128
ParCommInit:  Initialize #PEs:          128
ParCommInit:  Initialize #PEs:          128
ParCommInit:  Initialize #PEs:          128
ParCommInit:  Initialize #PEs:          128
ParCommInit:  Initialize #PEs:          128
ParCommInit:  Initialize #PEs:          128
ParCommInit:  Initialize #PEs:          128
ParCommInit:  Initialize #PEs:          128
ParCommInit:  Initialize #PEs:          128
ParCommInit:  Initialize #PEs:          128
ParCommInit:  Initialize #PEs:          128
ParCommInit:  Initialize #PEs:          128
ParCommInit:  Initialize #PEs:          128
ParCommInit:  Initialize #PEs:          128
ParCommInit:  Initialize #PEs:          128
ParCommInit:  Initialize #PEs:          128
ParCommInit:  Initialize #PEs:          128
ParCommInit:  Initialize #PEs:          128
ParCommInit:  Initialize #PEs:          128
ParCommInit:  Initialize #PEs:          128
ParCommInit:  Initialize #PEs:          128
ParCommInit:  Initialize #PEs:          128
ParCommInit:  Initialize #PEs:          128
ParCommInit:  Initialize #PEs:          128
ParCommInit:  Initialize #PEs:          128
ParCommInit:  Initialize #PEs:          128
ParCommInit:  Initialize #PEs:          128
ParCommInit:  Initialize #PEs:          128
ParCommInit:  Initialize #PEs:          128
ParCommInit:  Initialize #PEs:          128
ParCommInit:  Initialize #PEs:          128
ParCommInit:  Initialize #PEs:          128
ParCommInit:  Initialize #PEs:          128
ParCommInit:  Initialize #PEs:          128
ParCommInit:  Initialize #PEs:          128
ParCommInit:  Initialize #PEs:          128
ParCommInit:  Initialize #PEs:          128
ParCommInit:  Initialize #PEs:          128
ParCommInit:  Initialize #PEs:          128
ParCommInit:  Initialize #PEs:          128
ParCommInit:  Initialize #PEs:          128
ParCommInit:  Initialize #PEs:          128
ParCommInit:  Initialize #PEs:          128
ParCommInit:  Initialize #PEs:          128
ParCommInit:  Initialize #PEs:          128
ParCommInit:  Initialize #PEs:          128
ParCommInit:  Initialize #PEs:          128
ParCommInit:  Initialize #PEs:          128
ParCommInit:  Initialize #PEs:          128
ParCommInit:  Initialize #PEs:          128
ParCommInit:  Initialize #PEs:          128
ParCommInit:  Initialize #PEs:          128
ParCommInit:  Initialize #PEs:          128
ParCommInit:  Initialize #PEs:          128
ParCommInit:  Initialize #PEs:          128
ParCommInit:  Initialize #PEs:          128
ParCommInit:  Initialize #PEs:          128
ParCommInit:  Initialize #PEs:          128
ParCommInit:  Initialize #PEs:          128
ParCommInit:  Initialize #PEs:          128
ParCommInit:  Initialize #PEs:          128
ParCommInit:  Initialize #PEs:          128
ParCommInit:  Initialize #PEs:          128
ParCommInit:  Initialize #PEs:          128
ParCommInit:  Initialize #PEs:          128
ParCommInit:  Initialize #PEs:          128
ParCommInit:  Initialize #PEs:          128
ParCommInit:  Initialize #PEs:          128
ParCommInit:  Initialize #PEs:          128
ParCommInit:  Initialize #PEs:          128
ParCommInit:  Initialize #PEs:          128
ParCommInit:  Initialize #PEs:          128
MAIN: 
MAIN: =============================================================
MAIN: ElmerSolver finite element software, Welcome!
MAIN: This program is free software licensed under (L)GPL
MAIN: Copyright 1st April 1995 - , CSC - IT Center for Science Ltd.
MAIN: Webpage http://www.csc.fi/elmer, Email elmeradm@csc.fi
MAIN: Version: 8.4 (Rev: 3c3a578, Compiled: 2020-12-30)
MAIN:  Running in parallel using 128 tasks.
MAIN:  Running with just one thread per task.
MAIN:  HYPRE library linked in.
MAIN:  MUMPS library linked in.
MAIN:  Lua interpreted linked in.
MAIN: =============================================================
LoadInputFile: Reading only "Run Control" section
MAIN: 
MAIN: 
MAIN: -------------------------------------
MAIN: Reading Model: SR_noSS.sif
LoadInputFile: Scanning input file: SR_noSS.sif
LoadInputFile: Scanning only size info
LoadInputFile: First time visiting
LoadInputFile: Reading base load of sif file
LoadInputFile: Loading input file: SR_noSS.sif
LoadInputFile: Reading base load of sif file
Model Input:  Unlisted keyword: [rhoo] in section: [constants]
Model Input:  Unlisted keyword: [rhoi] in section: [constants]
Model Input:  Unlisted keyword: [fs lower] in section: [initial condition 1]
Model Input:  Unlisted keyword: [fs upper] in section: [initial condition 1]
Model Input:  Unlisted keyword: [cauchy] in section: [material 1]
Model Input:  Unlisted keyword: [limit temperature] in section: [material 1]
Model Input:  Unlisted keyword: [sea level] in section: [material 1]
Model Input:  Unlisted keyword: [min fs upper] in section: [material 3]
Model Input:  Unlisted keyword: [top surface variable name] in section: [solver 2]
Model Input:  Unlisted keyword: [bottom surface variable name] in section: [solver 2]
Model Input:  Unlisted keyword: [correct surface] in section: [solver 2]
Model Input:  Unlisted keyword: [minimum height] in section: [solver 2]
Model Input:  Unlisted keyword: [minimum height] in section: [solver 3]
Model Input:  Unlisted keyword: [top surface variable name] in section: [solver 3]
Model Input:  Unlisted keyword: [bottom surface variable name] in section: [solver 3]
Model Input:  Unlisted keyword: [correct surface] in section: [solver 3]
Model Input:  Unlisted keyword: [toler] in section: [solver 5]
Model Input:  Unlisted keyword: [bedrock variable] in section: [solver 5]
Model Input:  Unlisted keyword: [computeall] in section: [solver 6]
Model Input:  Unlisted keyword: [nonlinear system abort not converged] in section: [solver 8]
Model Input:  Unlisted keyword: [flow solver name] in section: [solver 9]
Model Input:  Unlisted keyword: [stress variable name] in section: [solver 9]
Loading user function library: [ElmerIceUSF]...[SeaPressure]
Model Input:  Unlisted keyword: [compute sea pressure] in section: [boundary condition 2]
Model Input:  Unlisted keyword: [test contact tolerance] in section: [boundary condition 3]
Model Input:  Unlisted keyword: [height] in section: [boundary condition 3]
Model Input:  Unlisted keyword: [fs lower] in section: [boundary condition 3]
Model Input:  Unlisted keyword: [depth] in section: [boundary condition 4]
Model Input:  Unlisted keyword: [fs upper] in section: [boundary condition 4]
LoadInputFile: Number of BCs: 4
LoadInputFile: Number of Body Forces: 1
LoadInputFile: Number of Initial Conditions: 1
LoadInputFile: Number of Materials: 3
LoadInputFile: Number of Equations: 3
LoadInputFile: Number of Solvers: 12
LoadInputFile: Number of Bodies: 3
Loading user function library: [DummySolver]...[DummySolver_Init0]
Loading user function library: [StructuredMeshMapper]...[StructuredMeshMapper_Init0]
Loading user function library: [StructuredMeshMapper]...[StructuredMeshMapper_Init0]
Loading user function library: [StructuredProjectToPlane]...[StructuredProjectToPlane_Init0]
Loading user function library: [ElmerIceSolvers]...[GroundedSolver_Init0]
Loading user function library: [ElmerIceSolvers]...[ComputeNormalSolver_Init0]
Loading user function library: [ElmerIceSolvers]...[GetHydrostaticLoads_Init0]
Loading user function library: [ElmerIceSolvers]...[ComputeDevStress_Init0]
Loading user function library: [FreeSurfaceSolver]...[FreeSurfaceSolver_Init0]
Loading user function library: [FreeSurfaceSolver]...[FreeSurfaceSolver_Init0]
Loading user function library: [ResultOutputSolve]...[ResultOutputSolver_Init0]
LoadMesh: Starting
ElmerAsciiMesh: Performing step: 1
LoadMesh: Base mesh name: ./../mesh2D_TG_refpart/
InitializeMesh: Number of nodes in mesh: 365
InitializeMesh: Number of bulk elements in mesh: 649
InitializeMesh: Number of boundary elements in mesh: 16
ElmerAsciiMesh: Performing step: 2
SetMeshDimension: Dimension of mesh is: 2
SetMeshDimension: Max dimension of mesh is: 2
ElmerAsciiMesh: Performing step: 3
ElmerAsciiMesh: Performing step: 4
LoadMesh: Performing node mapping
LoadMesh: Remapping boundaries
LoadMesh: Minimum initial boundary index: 2
LoadMesh: Maximum initial boundary index: 2
ElmerAsciiMesh: Performing step: 5
ElmerAsciiMesh: Performing step: 6
LoadMesh: Loading mesh done
LoadMesh: Elapsed REAL time:     0.1870 (s)
MeshStabParams: Computing stabilization parameters
MeshStabParams: Elapsed REAL time:     0.0144 (s)
UnitSegmentDivision: Creating functional division
UnitSegmentDivision: Convergence obtained in 135 iterations
UnitSegmentDivision: Mesh division ready
UnitSegmentDivision: w(0) :   0.0000E+00
UnitSegmentDivision: w(1) :   3.7444E-02
UnitSegmentDivision: w(2) :   7.8392E-02
UnitSegmentDivision: w(3) :   1.2317E-01
UnitSegmentDivision: w(4) :   1.7215E-01
UnitSegmentDivision: w(5) :   2.2571E-01
UnitSegmentDivision: w(6) :   2.8428E-01
UnitSegmentDivision: w(7) :   3.4833E-01
UnitSegmentDivision: w(8) :   4.1838E-01
UnitSegmentDivision: w(9) :   4.9499E-01
UnitSegmentDivision: w(10) :   5.7877E-01
UnitSegmentDivision: w(11) :   6.7039E-01
UnitSegmentDivision: w(12) :   7.7059E-01
UnitSegmentDivision: w(13) :   8.8017E-01
UnitSegmentDivision: w(14) :   1.0000E+00
MeshExtrude: First Extruded BC set to: 3
MeshExtrude: Number of new BCs for layers: 1
SetMeshDimension: Dimension of mesh is: 3
SetMeshDimension: Max dimension of mesh is: 3
NonNodalElements: Requested elements require creation of edges
FindMeshEdges: Determining faces in 3D mesh
FindMeshEdges: Determining edges in 3D mesh
MAIN: -------------------------------------
AddEquationBasics: Setting up solver: dummyroutine
Loading user function library: [DummySolver]...[DummySolver_Init]
Loading user function library: [DummySolver]...[DummySolver_bulk]
Loading user function library: [DummySolver]...[DummySolver]
AddEquationBasics: Creating standard variable: dummyv
OptimizeBandwidth: ---------------------------------------------------------
OptimizeBandwidth: Computing matrix structure for: dummyroutine...done.
OptimizeBandwidth: Half bandwidth without optimization: 719
OptimizeBandwidth: 
OptimizeBandwidth: Bandwidth Optimization ...done.
OptimizeBandwidth: Half bandwidth after optimization: 667
OptimizeBandwidth: ---------------------------------------------------------
AddEquationBasics: Setting up solver: mapcoordinate_init
Loading user function library: [StructuredMeshMapper]...[StructuredMeshMapper_Init]
Loading user function library: [StructuredMeshMapper]...[StructuredMeshMapper_bulk]
Loading user function library: [StructuredMeshMapper]...[StructuredMeshMapper]
AddEquationBasics: Setting up solver: mapcoordinate
Loading user function library: [StructuredMeshMapper]...[StructuredMeshMapper_Init]
Loading user function library: [StructuredMeshMapper]...[StructuredMeshMapper_bulk]
Loading user function library: [StructuredMeshMapper]...[StructuredMeshMapper]
AddEquationBasics: Setting up solver: heightdepth
Loading user function library: [StructuredProjectToPlane]...[StructuredProjectToPlane_Init]
Loading user function library: [StructuredProjectToPlane]...[StructuredProjectToPlane_bulk]
Loading user function library: [StructuredProjectToPlane]...[StructuredProjectToPlane]
AddEquationBasics: Setting up solver: groundedmask
Loading user function library: [ElmerIceSolvers]...[GroundedSolver_Init]
Loading user function library: [ElmerIceSolvers]...[GroundedSolver_bulk]
Loading user function library: [ElmerIceSolvers]...[GroundedSolver]
AddEquationBasics: Creating standard variable: groundedmask
OptimizeBandwidth: ---------------------------------------------------------
OptimizeBandwidth: Computing matrix structure for: groundedmask...done.
OptimizeBandwidth: Half bandwidth without optimization: 352
OptimizeBandwidth: 
OptimizeBandwidth: Bandwidth Optimization ...done.
OptimizeBandwidth: Half bandwidth after optimization: 40
OptimizeBandwidth: ---------------------------------------------------------
AddEquationBasics: Setting up solver: normal vector
Loading user function library: [ElmerIceSolvers]...[ComputeNormalSolver_Init]
Loading user function library: [ElmerIceSolvers]...[ComputeNormalSolver_bulk]
Loading user function library: [ElmerIceSolvers]...[ComputeNormalSolver]
AddEquationBasics: Creating standard variable: normal vector
OptimizeBandwidth: ---------------------------------------------------------
OptimizeBandwidth: Computing matrix structure for: normal vector...done.
OptimizeBandwidth: Half bandwidth without optimization: 719
OptimizeBandwidth: ---------------------------------------------------------
AddEquationBasics: Setting up solver: fw
Loading user function library: [ElmerIceSolvers]...[GetHydrostaticLoads_Init]
Loading user function library: [ElmerIceSolvers]...[GetHydrostaticLoads_bulk]
Loading user function library: [ElmerIceSolvers]...[GetHydrostaticLoads]
AddEquationBasics: Creating standard variable: fw[fwater:3]
OptimizeBandwidth: ---------------------------------------------------------
OptimizeBandwidth: Computing matrix structure for: fw...done.
OptimizeBandwidth: Half bandwidth without optimization: 352
OptimizeBandwidth: 
OptimizeBandwidth: Bandwidth Optimization ...done.
OptimizeBandwidth: Half bandwidth after optimization: 40
OptimizeBandwidth: ---------------------------------------------------------
AddEquationBasics: Setting up solver: navier-stokes
Loading user function library: [FlowSolve]...[FlowSolver_Init]
Loading user function library: [FlowSolve]...[FlowSolver_bulk]
Loading user function library: [FlowSolve]...[FlowSolver]
AddEquationBasics: Creating standard variable: flow solution[velocity:3 pressure:1]
OptimizeBandwidth: ---------------------------------------------------------
OptimizeBandwidth: Computing matrix structure for: navier-stokes...done.
OptimizeBandwidth: Half bandwidth without optimization: 719
OptimizeBandwidth: 
OptimizeBandwidth: Bandwidth Optimization ...done.
OptimizeBandwidth: Half bandwidth after optimization: 667
OptimizeBandwidth: ---------------------------------------------------------
AddEquationBasics: Setting up solver: stresssolver
Loading user function library: [ElmerIceSolvers]...[ComputeDevStress_Init]
Loading user function library: [ElmerIceSolvers]...[ComputeDevStress_bulk]
Loading user function library: [ElmerIceSolvers]...[ComputeDevStress]
AddEquationBasics: Creating standard variable: sij
OptimizeBandwidth: ---------------------------------------------------------
OptimizeBandwidth: Computing matrix structure for: stresssolver...done.
OptimizeBandwidth: Half bandwidth without optimization: 719
OptimizeBandwidth: 
OptimizeBandwidth: Bandwidth Optimization ...done.
OptimizeBandwidth: Half bandwidth after optimization: 667
OptimizeBandwidth: ---------------------------------------------------------
AddEquationBasics: Setting up solver: lower free surface
Loading user function library: [FreeSurfaceSolver]...[FreeSurfaceSolver_Init]
Loading user function library: [FreeSurfaceSolver]...[FreeSurfaceSolver_bulk]
Loading user function library: [FreeSurfaceSolver]...[FreeSurfaceSolver]
AddEquationBasics: Creating standard variable: fs lower
OptimizeBandwidth: ---------------------------------------------------------
OptimizeBandwidth: Computing matrix structure for: lower free surface...done.
OptimizeBandwidth: Half bandwidth without optimization: 352
OptimizeBandwidth: 
OptimizeBandwidth: Bandwidth Optimization ...done.
OptimizeBandwidth: Half bandwidth after optimization: 40
OptimizeBandwidth: ---------------------------------------------------------
AddEquationBasics: Setting up solver: upper free surface
Loading user function library: [FreeSurfaceSolver]...[FreeSurfaceSolver_Init]
Loading user function library: [FreeSurfaceSolver]...[FreeSurfaceSolver_bulk]
Loading user function library: [FreeSurfaceSolver]...[FreeSurfaceSolver]
AddEquationBasics: Creating standard variable: fs upper
OptimizeBandwidth: ---------------------------------------------------------
OptimizeBandwidth: Computing matrix structure for: upper free surface...done.
OptimizeBandwidth: Half bandwidth without optimization: 352
OptimizeBandwidth: 
OptimizeBandwidth: Bandwidth Optimization ...done.
OptimizeBandwidth: Half bandwidth after optimization: 40
OptimizeBandwidth: ---------------------------------------------------------
AddEquationBasics: Setting up solver: resultoutput
Loading user function library: [ResultOutputSolve]...[ResultOutputSolver_Init]
Loading user function library: [ResultOutputSolve]...[ResultOutputSolver_bulk]
Loading user function library: [ResultOutputSolve]...[ResultOutputSolver]
Restart: Perfoming global Restart for:
LoadRestartFile: 
LoadRestartFile: --------------------------------------------
LoadRestartFile: Restart for mesh name:
LoadRestartFile: Restart for number of nodes: 5475
LoadRestartFile: Reading data from file: ../TG_S1p5/results/readnc_tempc_transient.result.0
LoadRestartFile: ASCII 3
LoadRestartFile: Reading ascii restart file version 3
LoadRestartFile: Creating variable: dvu
LoadRestartFile: Creating variable: vobs
LoadRestartFile: Creating variable: vx
LoadRestartFile: Creating variable: vy
LoadRestartFile: Creating variable: surface
LoadRestartFile: Creating variable: bed
LoadRestartFile: Creating variable: beta
LoadRestartFile: Creating variable: smbref
LoadRestartFile: Creating variable: q_geo
LoadRestartFile: Creating variable: as_perp_apl
LoadRestartFile: Creating variable: proj_smbref
LoadRestartFile: Creating variable: proj_surf
LoadRestartFile: Total number of dofs to load: 23
LoadRestartFile: Reading time sequence:    2.000E-01
LoadRestartFile: Reading timestep: 1
LoadRestartFile: Time spent for restart (s):      1.0451E-01
LoadRestartFile: All done
LoadRestartFile: --------------------------------------------
ElmerSolver: Number of timesteps to be saved: 10
SingleSolver: Attempting to call solver
SingleSolver: Solver Equation string is: mapcoordinate_init
StructuredMeshMapper: ---------------------------------------
StructuredMeshMapper: Performing mapping on a structured mesh
StructuredMeshMapper: ---------------------------------------
DetectExtrudedStructure: Determining extruded structure
DetectExtrudedStructure: Unit vector of direction:   0.000   0.000   1.000
DetectExtrudedStructure: determine top and bottom pointers
DetectExtrudedStructure: Layered structure detected in 14 cycles
DetectExtrudedStructure:  Top and bottom pointer init time:    2.0679999999999588E-003
DetectExtrudedStructure: Top and bottom pointer init rounds: 14
DetectExtrudedStructure: Number of nodes at the top: 365
DetectExtrudedStructure: Number of nodes at the bottom: 365
StructuredMeshMapper: Adjusting upper surface to maintain minimum height to: 0.1100E+02
StructuredMeshMapper: > Correct Surface < in case of intersecting upper and lower surface
StructuredMeshMapper:  Active coordinate mapping time:    1.8600000000001948E-004
Loading user function library: [StructuredMeshMapper]...[StructuredMeshMapper_post]
ListToCRSMatrix: Matrix format changed from CRS to List
List_ToCRSMatrix: Number of entries in CRS matrix: 2169
List_ToCRSMatrix: Matrix format changed from List to CRS
SingleSolver: Attempting to call solver
SingleSolver: Solver Equation string is: groundedmask
GroundedSolver: Computing grounded mask from geometry
GroundedSolver: Memory allocation done.
GroundedSolver: Bedrock Variable name found
GroundedSolver: No front variable defined. Some basal frontal nodes may be left with GroundedMask=1
 Grounding Line, (x,y)  -1526597.5108700001       -480339.95514500001     
 Grounding Line, (x,y)  -1526812.8436799999       -479721.86859199998     
 Grounding Line, (x,y)  -1526679.2598000001       -480866.42875999998     
 Grounding Line, (x,y)  -1520122.2998700000       -459799.41164200002     
 Grounding Line, (x,y)  -1521255.9038300000       -463756.91935500002     
 Grounding Line, (x,y)  -1520567.1701000000       -463806.78296799998     
 Grounding Line, (x,y)  -1520185.8907200000       -459217.75656399998     
 Grounding Line, (x,y)  -1519376.3078399999       -461607.55224100000     
 Grounding Line, (x,y)  -1522280.5884900000       -464128.11682400003     
 Grounding Line, (x,y)  -1519856.1159500000       -463860.33895100001     
 Grounding Line, (x,y)  -1519523.3265900000       -463360.40485400002     
 Grounding Line, (x,y)  -1519374.1325399999       -462821.88964600000     
 Grounding Line, (x,y)  -1520734.6651000001       -459042.59892700001     
 Grounding Line, (x,y)  -1519541.0704900001       -460077.28554800001     
 Grounding Line, (x,y)  -1519122.6163600001       -461043.19764999999     
 Grounding Line, (x,y)  -1528481.5676500001       -477089.96378599998     
 Grounding Line, (x,y)  -1528927.5391700000       -476566.55936700001     
 Grounding Line, (x,y)  -1528039.9973400000       -478119.67799699999     
 Grounding Line, (x,y)  -1528058.1089100000       -477523.53047100001     
 Grounding Line, (x,y)  -1527570.4032399999       -478506.57419800002     
 Grounding Line, (x,y)  -1527078.2120500000       -479054.48989400000     
 Grounding Line, (x,y)  -1529054.6565700001       -474316.95319899998     
 Grounding Line, (x,y)  -1529089.0667600001       -474981.92560700001     
 Grounding Line, (x,y)  -1529532.4987699999       -473501.97754499997     
 Grounding Line, (x,y)  -1529038.9031199999       -473759.24992500001     
 Grounding Line, (x,y)  -1528883.5574900000       -475521.97301700001     
 Grounding Line, (x,y)  -1527409.9659299999       -479606.07716500002     
 Grounding Line, (x,y)  -1521700.0895799999       -464339.09391800000     
 Grounding Line, (x,y)  -1522280.5884900000       -464128.11682400003     
 Grounding Line, (x,y)  -1521255.9038300000       -463756.91935500002     
 Grounding Line, (x,y)  -1569493.7727900001       -423005.99362000002     
 Grounding Line, (x,y)  -1572941.6274699999       -395008.26545499999     
 Grounding Line, (x,y)  -1573589.9151099999       -397680.89694700000     
 Grounding Line, (x,y)  -1569121.8949300000       -406204.54802799999     
 Grounding Line, (x,y)  -1568741.0348100001       -405718.48828200001     
 Grounding Line, (x,y)  -1570549.9748199999       -403537.47755100002     
 Grounding Line, (x,y)  -1570909.5993700000       -403109.52850299998     
 Grounding Line, (x,y)  -1573171.9212199999       -402250.99039599998     
 Grounding Line, (x,y)  -1573091.9263299999       -401791.80389899999     
 Grounding Line, (x,y)  -1574771.6910100000       -398478.49679200002     
 Grounding Line, (x,y)  -1572958.8211800000       -396062.84347000002     
 Grounding Line, (x,y)  -1572388.4645600000       -395236.21294699999     
 Grounding Line, (x,y)  -1574190.5336300000       -400226.14651799999     
 Grounding Line, (x,y)  -1574757.2511600000       -399917.95893899997     
 Grounding Line, (x,y)  -1574033.3138600001       -397805.90020400001     
 Grounding Line, (x,y)  -1570977.5884100001       -403974.83126200002     
 Grounding Line, (x,y)  -1571609.0908800000       -402792.30687600002     
 Grounding Line, (x,y)  -1573151.6676300000       -394274.34766199999     
 Grounding Line, (x,y)  -1573317.4560799999       -396893.29485800001     
 Grounding Line, (x,y)  -1574679.4412100001       -398957.16239800001     
 Grounding Line, (x,y)  -1572703.1447300001       -402473.19881899998     
 Grounding Line, (x,y)  -1573786.0237000000       -400875.76299299998     
 Grounding Line, (x,y)  -1569049.6086500001       -405124.31984399998     
 Grounding Line, (x,y)  -1574977.4258300001       -399340.63825800002     
 Grounding Line, (x,y)  -1572281.8955300001       -402794.10260500002     
 Grounding Line, (x,y)  -1569767.8618300001       -404358.05519400002     
 Grounding Line, (x,y)  -1568964.6302400001       -404509.97918500000     
 Grounding Line, (x,y)  -1570118.0046200000       -403951.56857499998     
 Grounding Line, (x,y)  -1574440.7355100000       -398071.81720400002     
 Grounding Line, (x,y)  -1573433.2821800001       -401400.43055900000     
 Grounding Line, (x,y)  -1549638.6520400001       -431798.72299500002     
 Grounding Line, (x,y)  -1548086.1716400001       -433213.48535999999     
 Grounding Line, (x,y)  -1548601.5456600001       -432642.73691300000     
 Grounding Line, (x,y)  -1548882.6535499999       -431902.35193900001     
 Grounding Line, (x,y)  -1551307.4367100000       -432487.30157499999     
 Grounding Line, (x,y)  -1547497.4783399999       -433686.40889500000     
 Grounding Line, (x,y)  -1547479.9762599999       -434412.39927400002     
 Grounding Line, (x,y)  -1544686.4941300000       -442563.00563500001     
 Grounding Line, (x,y)  -1546807.1784200000       -435296.68404000002     
 Grounding Line, (x,y)  -1552547.5761500001       -433486.36513100000     
 Grounding Line, (x,y)  -1551974.1835900000       -433037.39949699998     
 Grounding Line, (x,y)  -1544493.0498800001       -440783.21173600003     
 Grounding Line, (x,y)  -1544722.0756399999       -441413.07810400001     
 Grounding Line, (x,y)  -1544222.4138600000       -443082.34720600001     
 Grounding Line, (x,y)  -1545327.3608400000       -437595.96013199998     
 Grounding Line, (x,y)  -1545377.6519299999       -436946.21552299999     
 Grounding Line, (x,y)  -1544935.9751400000       -441932.02388200001     
 Grounding Line, (x,y)  -1544354.5728000000       -440283.23071400000     
 Grounding Line, (x,y)  -1546885.3726200000       -434728.21385399997     
 Grounding Line, (x,y)  -1546452.9055500000       -436261.83902499999     
 Grounding Line, (x,y)  -1541552.3362400001       -439587.90078800003     
 Grounding Line, (x,y)  -1542236.2219600000       -439391.02695999999     
 Grounding Line, (x,y)  -1545269.8518900000       -438947.30500200001     
 Grounding Line, (x,y)  -1545231.4448299999       -438316.66897300002     
 Grounding Line, (x,y)  -1545947.4790800000       -436629.41017100000     
 Grounding Line, (x,y)  -1543065.0059700001       -440007.59788299998     
 Grounding Line, (x,y)  -1543748.2240100000       -440163.64494799997     
 Grounding Line, (x,y)  -1545494.8661199999       -440503.89917300001     
 Grounding Line, (x,y)  -1545412.6172499999       -439989.72317900002     
 Grounding Line, (x,y)  -1542561.6634100000       -439790.86455599999     
 Grounding Line, (x,y)  -1546087.8203400001       -440673.22326800000     
 Grounding Line, (x,y)  -1553382.9222800001       -433607.56666600000     
 Grounding Line, (x,y)  -1545867.6050600000       -439205.82794699998     
 Grounding Line, (x,y)  -1545616.5919000001       -441894.50647099997     
 Grounding Line, (x,y)  -1545312.7811300000       -442317.31543500000     
 Grounding Line, (x,y)  -1546458.3561900000       -435712.94321699999     
 Grounding Line, (x,y)  -1553539.2190600000       -434546.76045700000     
 Grounding Line, (x,y)  -1544849.2470600000       -443158.87828900001     
 Grounding Line, (x,y)  -1545940.3834800001       -441437.69075299997     
 Grounding Line, (x,y)  -1545805.6032199999       -441009.50553299999     
 Grounding Line, (x,y)  -1545295.4277300001       -439497.58555500000     
 Grounding Line, (x,y)  -1556475.8584300000       -432787.26956799999     
 Grounding Line, (x,y)  -1555850.6292000001       -433461.15610500000     
 Grounding Line, (x,y)  -1557842.7561999999       -430800.99745199998     
 Grounding Line, (x,y)  -1557265.5538900001       -431112.76970700000     
 Grounding Line, (x,y)  -1557013.3100099999       -432018.52052700002     
 Grounding Line, (x,y)  -1558285.7877799999       -430001.98926499998     
 Grounding Line, (x,y)  -1554504.1031200001       -435937.23671999999     
 Grounding Line, (x,y)  -1558935.1487199999       -429226.09808400000     
 Grounding Line, (x,y)  -1553539.2190600000       -434546.76045700000     
 Grounding Line, (x,y)  -1553382.9222800001       -433607.56666600000     
 Grounding Line, (x,y)  -1554432.5794800001       -434842.65604600002     
 Grounding Line, (x,y)  -1558576.3894799999       -428430.24583799997     
 Grounding Line, (x,y)  -1555128.8907399999       -434077.32647799997     
 Grounding Line, (x,y)  -1558659.6629300001       -422612.89573300001     
 Grounding Line, (x,y)  -1559319.7445799999       -422220.54810399999     
 Grounding Line, (x,y)  -1551307.4367100000       -432487.30157499999     
 Grounding Line, (x,y)  -1550620.8817300000       -431743.75968500000     
 Grounding Line, (x,y)  -1557147.4324200000       -422747.66646699997     
 Grounding Line, (x,y)  -1557805.5807600000       -422858.80923200003     
 Grounding Line, (x,y)  -1549638.6520400001       -431798.72299500002     
 Grounding Line, (x,y)  -1560554.9002300000       -422033.11264800001     
 Grounding Line, (x,y)  -1555391.9524699999       -423901.43207400001     
 Grounding Line, (x,y)  -1556149.5425900000       -423472.27957299998     
 Grounding Line, (x,y)  -1555723.9824600001       -427194.56271500001     
 Grounding Line, (x,y)  -1556207.4883699999       -427583.70707900001     
 Grounding Line, (x,y)  -1555086.1152800000       -424759.85290000000     
 Grounding Line, (x,y)  -1554102.0229700000       -425225.95339699998     
 Grounding Line, (x,y)  -1557163.5334500000       -428497.79472200002     
 Grounding Line, (x,y)  -1557243.0331100000       -427790.55145099998     
 Grounding Line, (x,y)  -1555095.3590899999       -426645.95246399997     
 Grounding Line, (x,y)  -1556783.9269699999       -423258.11004499998     
 Grounding Line, (x,y)  -1559875.7748499999       -421805.69318800000     
 Grounding Line, (x,y)  -1558576.3894799999       -428430.24583799997     
 Grounding Line, (x,y)  -1561948.8341600001       -420035.65649800003     
 Grounding Line, (x,y)  -1563025.8577500000       -419774.89412399998     
 Grounding Line, (x,y)  -1557829.3426900001       -428601.49463600002     
 Grounding Line, (x,y)  -1554451.9616100001       -426106.98918500001     
 Grounding Line, (x,y)  -1561247.7984300000       -421047.54928199999     
 Grounding Line, (x,y)  -1556708.9175600000       -428024.20276900003     
 Grounding Line, (x,y)  -1538417.1041600001       -443631.39449500002     
 Grounding Line, (x,y)  -1541552.3362400001       -439587.90078800003     
 Grounding Line, (x,y)  -1537772.0885300001       -443756.94551500003     
 Grounding Line, (x,y)  -1543751.1928099999       -443514.81125600002     
 Grounding Line, (x,y)  -1544326.8080200001       -443608.42398700002     
 Grounding Line, (x,y)  -1540978.1405199999       -439786.58977500000     
 Grounding Line, (x,y)  -1543680.1704400000       -443065.65021300002     
 Grounding Line, (x,y)  -1538425.6551500000       -443071.27096599998     
 Grounding Line, (x,y)  -1544222.4138600000       -443082.34720600001     
 Grounding Line, (x,y)  -1544849.2470600000       -443158.87828900001     
 Grounding Line, (x,y)  -1592625.1645700000       -450629.51459799998     
 Grounding Line, (x,y)  -1593922.6392600001       -450057.64899299998     
 Grounding Line, (x,y)  -1593304.5876000000       -450331.13994199998     
 Grounding Line, (x,y)  -1593954.5364399999       -449594.91746199998     
 Grounding Line, (x,y)  -1593172.3725600000       -451092.56075499998     
 Grounding Line, (x,y)  -1592953.7074100000       -451967.35096399998     
 Grounding Line, (x,y)  -1597295.6710099999       -448410.36283300002     
 Grounding Line, (x,y)  -1597032.8576900000       -447896.35535500001     
 Grounding Line, (x,y)  -1596427.8512400000       -447843.61255399999     
 Grounding Line, (x,y)  -1596508.3375400000       -447310.11444400001     
 Grounding Line, (x,y)  -1592668.0201200000       -452858.54519700003     
 Grounding Line, (x,y)  -1597788.7042200000       -447303.20714900002     
 Grounding Line, (x,y)  -1595769.2160900000       -448259.38815600000     
 Grounding Line, (x,y)  -1592005.9242700001       -452986.17808899999     
 Grounding Line, (x,y)  -1597185.6729200000       -446706.87374800001     
 Grounding Line, (x,y)  -1595466.2163900000       -448880.04180299997     
 Grounding Line, (x,y)  -1594480.0499000000       -449107.03505100001     
 Grounding Line, (x,y)  -1597657.8162799999       -445179.59260300000     
 Grounding Line, (x,y)  -1598358.1766800000       -445552.00427600002     
 Grounding Line, (x,y)  -1598746.8521100001       -445824.54277499998     
 Grounding Line, (x,y)  -1594985.7316699999       -450448.35892199998     
 Grounding Line, (x,y)  -1593060.0138300001       -453568.29482100002     
 Grounding Line, (x,y)  -1599077.4981500001       -444730.29197000002     
 Grounding Line, (x,y)  -1594354.6697600000       -451045.24814699998     
 Grounding Line, (x,y)  -1596375.4036900001       -449433.13276100002     
 Grounding Line, (x,y)  -1595358.4628600001       -449716.21788700001     
 Grounding Line, (x,y)  -1593334.9802500000       -452631.89815899997     
 Grounding Line, (x,y)  -1593619.3132000000       -451661.88877700001     
 Grounding Line, (x,y)  -1597497.5189799999       -445948.61459700001     
 Grounding Line, (x,y)  -1597733.6584600001       -446226.78941700002     
 Grounding Line, (x,y)  -1588491.6908300000       -456198.20286299998     
 Grounding Line, (x,y)  -1589077.4902900001       -455998.68554500001     
 Grounding Line, (x,y)  -1589875.3601400000       -455973.12762699998     
 Grounding Line, (x,y)  -1590158.0629300000       -455279.96303400001     
 Grounding Line, (x,y)  -1590946.4206600001       -455254.83506600000     
 Grounding Line, (x,y)  -1591780.5026199999       -455309.03954899998     
 Grounding Line, (x,y)  -1588105.9755500001       -456519.31020700000     
 Grounding Line, (x,y)  -1591280.0933500000       -456157.76143800002     
 Grounding Line, (x,y)  -1524557.3902600000       -510049.81942900002     
 Grounding Line, (x,y)  -1523948.5996200000       -510062.36083100003     
 Grounding Line, (x,y)  -1524579.2800600000       -511071.78471600002     
 Grounding Line, (x,y)  -1523264.0969000000       -510327.41179799999     
 Grounding Line, (x,y)  -1526149.2899499999       -512531.81117599999     
 Grounding Line, (x,y)  -1524518.0857700000       -512124.02700200002     
 Grounding Line, (x,y)  -1524051.2284299999       -511944.51181699999     
 Grounding Line, (x,y)  -1522952.9441500001       -511492.80621200002     
 Grounding Line, (x,y)  -1522807.1429399999       -510780.13697699999     
 Grounding Line, (x,y)  -1522447.6841100000       -511666.51593200001     
 Grounding Line, (x,y)  -1525114.7731399999       -512728.09632700001     
 Grounding Line, (x,y)  -1524047.5541900001       -511342.16454899998     
 Grounding Line, (x,y)  -1524926.4032999999       -509675.72193499998     
 Grounding Line, (x,y)  -1524706.7679300001       -512507.08689899999     
 Grounding Line, (x,y)  -1524715.5555000000       -510594.80685400002     
 Grounding Line, (x,y)  -1525678.2630600000       -512764.44839400001     
 Grounding Line, (x,y)  -1526458.6754699999       -513116.27050099999     
 Grounding Line, (x,y)  -1517345.0970900001       -500428.13459799998     
 Grounding Line, (x,y)  -1517349.9209700001       -501440.41504300002     
 Grounding Line, (x,y)  -1517059.6602000000       -501018.34973199997     
 Grounding Line, (x,y)  -1516898.6531700001       -501528.58922400000     
 Grounding Line, (x,y)  -1518627.7094600000       -496809.50379200000     
 Grounding Line, (x,y)  -1518098.1603999999       -498187.09801199997     
 Grounding Line, (x,y)  -1517962.8795500000       -497662.85556100000     
 Grounding Line, (x,y)  -1516482.6394700001       -502869.84248799999     
 Grounding Line, (x,y)  -1515992.5458800001       -503119.74480699998     
 Grounding Line, (x,y)  -1517690.7504499999       -499427.52660699998     
 Grounding Line, (x,y)  -1516522.3245500000       -502270.16453299997     
 Grounding Line, (x,y)  -1516850.8328900000       -501947.15874400001     
 Grounding Line, (x,y)  -1518276.7317900001       -497240.66355300002     
 Grounding Line, (x,y)  -1517962.9347000001       -498668.32926299999     
 Grounding Line, (x,y)  -1517576.3797100000       -498891.51755900000     
 Grounding Line, (x,y)  -1517706.5713200001       -499911.32974100002     
 Grounding Line, (x,y)  -1515756.1208200001       -503539.13555100001     
 Grounding Line, (x,y)  -1519302.9106399999       -496017.53162000002     
 Grounding Line, (x,y)  -1522837.7615900000       -492795.70640400000     
 Grounding Line, (x,y)  -1522870.2870400001       -493260.26694700000     
 Grounding Line, (x,y)  -1522106.1463500001       -493881.30378299998     
 Grounding Line, (x,y)  -1519732.2865100000       -495676.00079500000     
 Grounding Line, (x,y)  -1520266.7772500000       -495450.15328799997     
 Grounding Line, (x,y)  -1520873.3325600000       -494494.17417600000     
 Grounding Line, (x,y)  -1520560.2992300000       -494988.17370200000     
 Grounding Line, (x,y)  -1523610.2179000000       -492736.31513100001     
 Grounding Line, (x,y)  -1521559.3967500001       -494365.85723899998     
 Grounding Line, (x,y)  -1518914.1754900001       -496390.16230099997     
 Grounding Line, (x,y)  -1524195.1001100000       -493008.96904200001     
 Grounding Line, (x,y)  -1518627.7094600000       -496809.50379200000     
 Grounding Line, (x,y)  -1522296.5517400000       -493277.30124499998     
 Grounding Line, (x,y)  -1524630.0049800000       -492644.54929200001     
 Grounding Line, (x,y)  -1524969.9912900000       -492316.41625800001     
 Grounding Line, (x,y)  -1527409.9659299999       -479606.07716500002     
 Grounding Line, (x,y)  -1526917.9520200000       -483906.73226399999     
 Grounding Line, (x,y)  -1527188.5144400001       -485377.24361000000     
 Grounding Line, (x,y)  -1526930.0981900000       -484845.76271799998     
 Grounding Line, (x,y)  -1526764.6860499999       -483423.25954499998     
 Grounding Line, (x,y)  -1527137.4486900000       -484406.77799199999     
 Grounding Line, (x,y)  -1527007.9269900001       -482297.81836700003     
 Grounding Line, (x,y)  -1526468.7655799999       -482060.37760700000     
 Grounding Line, (x,y)  -1526522.2583099999       -481416.07084399997     
 Grounding Line, (x,y)  -1526986.4390100001       -482971.10833000002     
 Grounding Line, (x,y)  -1521453.8024200001       -512120.08237100003     
 Grounding Line, (x,y)  -1522091.0099200001       -512063.25105000002     
 Grounding Line, (x,y)  -1516990.5659800000       -506324.11763900000     
 Grounding Line, (x,y)  -1515756.1208200001       -503539.13555100001     
 Grounding Line, (x,y)  -1515885.7697099999       -504059.75973300001     
 Grounding Line, (x,y)  -1515637.2386099999       -504780.24468300003     
 Grounding Line, (x,y)  -1516463.7448199999       -506053.06088200002     
 Grounding Line, (x,y)  -1520070.3170000000       -512077.93297600001     
 Grounding Line, (x,y)  -1520934.4038199999       -512423.74351000000     
 Grounding Line, (x,y)  -1517417.2406899999       -509621.80262400000     
 Grounding Line, (x,y)  -1517690.7455200001       -508921.47401499999     
 Grounding Line, (x,y)  -1517903.3256099999       -510436.21993500000     
 Grounding Line, (x,y)  -1515802.1912300000       -505789.70681100001     
 Grounding Line, (x,y)  -1519318.2197300000       -511195.83709900000     
 Grounding Line, (x,y)  -1518244.8204800000       -511263.45688499999     
 Grounding Line, (x,y)  -1517695.0723900001       -507033.95854199998     
 Grounding Line, (x,y)  -1515279.0575900001       -505468.20514699997     
 Grounding Line, (x,y)  -1517849.5199100000       -508231.42370799999     
 Grounding Line, (x,y)  -1517767.7815900000       -507612.64805299998     
 Grounding Line, (x,y)  -1517260.2170500001       -506702.49653399998     
 Grounding Line, (x,y)  -1522447.6841100000       -511666.51593200001     
 Grounding Line, (x,y)  -1522828.0656999999       -455376.54830500000     
 Grounding Line, (x,y)  -1523330.9135900000       -454904.99587599997     
 Grounding Line, (x,y)  -1525265.4843599999       -451355.78600299999     
 Grounding Line, (x,y)  -1524981.4097000000       -451955.43778199999     
 Grounding Line, (x,y)  -1522450.3753300000       -455806.40921600000     
 Grounding Line, (x,y)  -1524601.7412399999       -452444.81650500000     
 Grounding Line, (x,y)  -1521568.3827000000       -457449.90781599999     
 Grounding Line, (x,y)  -1521900.6752700000       -457125.42139600002     
 Grounding Line, (x,y)  -1522308.5630800000       -456734.18799399998     
 Grounding Line, (x,y)  -1524152.1058700001       -453576.76337800000     
 Grounding Line, (x,y)  -1524167.6060100000       -454158.02180599998     
 Grounding Line, (x,y)  -1521177.3992999999       -458211.15368400002     
 Grounding Line, (x,y)  -1521653.6298499999       -457933.94655200001     
 Grounding Line, (x,y)  -1522138.4694200000       -456228.31471700000     
 Grounding Line, (x,y)  -1524311.7788400000       -452970.25859899999     
 Grounding Line, (x,y)  -1525485.8476900000       -450951.70790600003     
 Grounding Line, (x,y)  -1525881.6814300001       -450784.92132600001     
 Grounding Line, (x,y)  -1523649.9111700000       -454379.02980700001     
 Grounding Line, (x,y)  -1532550.1401000000       -446376.01537799998     
 Grounding Line, (x,y)  -1532052.7335699999       -446784.61111499998     
 Grounding Line, (x,y)  -1532247.2121900001       -447321.70097200002     
 Grounding Line, (x,y)  -1531183.6516799999       -449502.00541400001     
 Grounding Line, (x,y)  -1531474.7749300001       -448982.52244299999     
 Grounding Line, (x,y)  -1531767.5028500000       -448147.26561200002     
 Grounding Line, (x,y)  -1529024.5067900000       -451064.02905600000     
 Grounding Line, (x,y)  -1527692.2444600000       -450785.38769700000     
 Grounding Line, (x,y)  -1528155.7302399999       -450914.73964400002     
 Grounding Line, (x,y)  -1532188.3016100000       -447837.25507600000     
 Grounding Line, (x,y)  -1526233.0506200001       -450376.07998200000     
 Grounding Line, (x,y)  -1526929.8744099999       -450289.01882400003     
 Grounding Line, (x,y)  -1530358.3929000001       -450504.60639799997     
 Grounding Line, (x,y)  -1529825.1739099999       -450541.97767200001     
 Grounding Line, (x,y)  -1528621.2404199999       -450756.71390600002     
 Grounding Line, (x,y)  -1530593.0683599999       -449956.29379500001     
 Grounding Line, (x,y)  -1527507.4306399999       -450296.61413599999     
 Grounding Line, (x,y)  -1531392.9948000000       -448463.00904300000     
 Grounding Line, (x,y)  -1529154.6103099999       -450657.66277100000     
 Grounding Line, (x,y)  -1525881.6814300001       -450784.92132600001     
 Grounding Line, (x,y)  -1530598.7637700001       -463326.00959500001     
 Grounding Line, (x,y)  -1530477.4683500000       -462775.94265600003     
 Grounding Line, (x,y)  -1530876.1819000000       -462373.28500099998     
 Grounding Line, (x,y)  -1530333.9127300000       -462257.71048800001     
 Grounding Line, (x,y)  -1529930.4514400000       -462681.17413000000     
 Grounding Line, (x,y)  -1522885.4161600000       -463930.10308799997     
 Grounding Line, (x,y)  -1530958.3426600001       -472119.71801600000     
 Grounding Line, (x,y)  -1531575.4709000001       -472049.68539800000     
 Grounding Line, (x,y)  -1527428.8923700000       -463475.61610300001     
 Grounding Line, (x,y)  -1526789.7393799999       -463646.08097600000     
 Grounding Line, (x,y)  -1524990.9835999999       -464046.76154500002     
 Grounding Line, (x,y)  -1524249.1269200000       -464127.41706000001     
 Grounding Line, (x,y)  -1532052.7248400000       -472229.55567600002     
 Grounding Line, (x,y)  -1529853.9922700000       -472486.49279599998     
 Grounding Line, (x,y)  -1530246.6047000000       -472023.46203100000     
 Grounding Line, (x,y)  -1522280.5884900000       -464128.11682400003     
 Grounding Line, (x,y)  -1532971.9673899999       -470657.76174400002     
 Grounding Line, (x,y)  -1529594.9881500001       -473013.29810000001     
 Grounding Line, (x,y)  -1530054.9523400001       -472906.88220200001     
 Grounding Line, (x,y)  -1532963.9211299999       -467760.92226100003     
 Grounding Line, (x,y)  -1532528.2689499999       -467319.65253399999     
 Grounding Line, (x,y)  -1525757.9709800000       -463334.36839900003     
 Grounding Line, (x,y)  -1525596.0834900001       -463981.40470100002     
 Grounding Line, (x,y)  -1526162.9747400000       -463745.21961400000     
 Grounding Line, (x,y)  -1529570.7945099999       -463133.31806999998     
 Grounding Line, (x,y)  -1529182.8261100000       -463609.69551200001     
 Grounding Line, (x,y)  -1523543.5539400000       -463758.27033000003     
 Grounding Line, (x,y)  -1532961.8443900000       -470026.79041800002     
 Grounding Line, (x,y)  -1532330.1491799999       -466637.73340400000     
 Grounding Line, (x,y)  -1528647.7474000000       -463465.59801199997     
 Grounding Line, (x,y)  -1531105.1515500001       -464809.39377400000     
 Grounding Line, (x,y)  -1529930.4514400000       -462681.17413000000     
 Grounding Line, (x,y)  -1531962.3076400000       -465993.17198400002     
 Grounding Line, (x,y)  -1529532.4987699999       -473501.97754499997     
 Grounding Line, (x,y)  -1528033.4929899999       -463356.25057300000     
 Grounding Line, (x,y)  -1533151.5813899999       -469496.49428099999     
 Grounding Line, (x,y)  -1533067.0059600000       -468968.34315999999     
 Grounding Line, (x,y)  -1532381.9051999999       -471654.80541999999     
 Grounding Line, (x,y)  -1531338.7705699999       -465254.26478199998     
 Grounding Line, (x,y)  -1533460.3041699999       -468719.16544399998     
 Grounding Line, (x,y)  -1532645.1192500000       -471128.77134300000     
 Grounding Line, (x,y)  -1531553.5635200001       -465674.04463500000     
 Grounding Line, (x,y)  -1530738.5795799999       -463918.44512699998     
 Grounding Line, (x,y)  -1530723.1949400001       -464434.24210500001     
 Grounding Line, (x,y)  -1530598.7637700001       -463326.00959500001     
 Grounding Line, (x,y)  -1532925.9271499999       -468413.70870900003     
 Grounding Line, (x,y)  -1519549.4386400001       -460661.62141999998     
 Grounding Line, (x,y)  -1519319.4830499999       -462208.63088299998     
 Grounding Line, (x,y)  -1521177.3992999999       -458211.15368400002     
 Grounding Line, (x,y)  -1520747.0649699999       -458511.81015799998     
 Grounding Line, (x,y)  -1528792.3097900001       -476097.53298100003     
 Grounding Line, (x,y)  -1569630.3584499999       -408350.10016300000     
 Grounding Line, (x,y)  -1569400.5311900000       -407719.78429799998     
 Grounding Line, (x,y)  -1561754.1653900000       -417230.94129100000     
 Grounding Line, (x,y)  -1569493.7727900001       -423005.99362000002     
 Grounding Line, (x,y)  -1565077.8461199999       -417152.55350400001     
 Grounding Line, (x,y)  -1560964.2380500000       -413488.98715800000     
 Grounding Line, (x,y)  -1561810.6748500001       -412699.31454400002     
 Grounding Line, (x,y)  -1568704.2472699999       -410301.09297699999     
 Grounding Line, (x,y)  -1568949.2667100001       -409766.84545299999     
 Grounding Line, (x,y)  -1564850.7488100000       -410180.78639099997     
 Grounding Line, (x,y)  -1564118.2690099999       -410723.22804299998     
 Grounding Line, (x,y)  -1567629.1578700000       -409756.25872599997     
 Grounding Line, (x,y)  -1566936.9613600001       -409731.03596100002     
 Grounding Line, (x,y)  -1564579.3690500001       -417536.58031699999     
 Grounding Line, (x,y)  -1563879.1410399999       -417582.69673099997     
 Grounding Line, (x,y)  -1563025.8577500000       -419774.89412399998     
 Grounding Line, (x,y)  -1570736.0366400001       -417875.35073399998     
 Grounding Line, (x,y)  -1565863.2761500000       -416563.58068000001     
 Grounding Line, (x,y)  -1565664.5914700001       -417002.88494999998     
 Grounding Line, (x,y)  -1565324.3607099999       -418526.26069400000     
 Grounding Line, (x,y)  -1564521.0679700000       -418564.71731500002     
 Grounding Line, (x,y)  -1569123.8763300001       -407128.36837400001     
 Grounding Line, (x,y)  -1560825.9933800001       -416596.22165299999     
 Grounding Line, (x,y)  -1560618.1863800001       -415461.52824999997     
 Grounding Line, (x,y)  -1567924.6803299999       -410192.12475299998     
 Grounding Line, (x,y)  -1561448.9774199999       -414723.71976800001     
 Grounding Line, (x,y)  -1570401.5211799999       -419755.19883299997     
 Grounding Line, (x,y)  -1562437.4258300001       -417988.52724099997     
 Grounding Line, (x,y)  -1569164.6756899999       -408484.54348100000     
 Grounding Line, (x,y)  -1568914.6147200000       -409123.86689000000     
 Grounding Line, (x,y)  -1563194.8169100001       -417580.84080499999     
 Grounding Line, (x,y)  -1569372.7015500001       -409462.84655500000     
 Grounding Line, (x,y)  -1563434.3569799999       -411301.06046600000     
 Grounding Line, (x,y)  -1562808.0934500000       -411803.76299800002     
 Grounding Line, (x,y)  -1565818.1325300001       -410041.55832600000     
 Grounding Line, (x,y)  -1568392.4141200001       -409972.98528800003     
 Grounding Line, (x,y)  -1566233.0077100000       -417692.37739899999     
 Grounding Line, (x,y)  -1566037.3401299999       -418268.95762499998     
 Grounding Line, (x,y)  -1570104.4854100000       -419029.28364300000     
 Grounding Line, (x,y)  -1565990.8948599999       -417363.51511600002     
 Grounding Line, (x,y)  -1566135.8219300001       -416946.20470200002     
 Grounding Line, (x,y)  -1564180.7731200000       -419489.66941899998     
 Grounding Line, (x,y)  -1569121.8949300000       -406204.54802799999     
 Grounding Line, (x,y)  -1568813.2470799999       -406652.24803700001     
 Grounding Line, (x,y)  -1574341.0282200000       -388467.51968299999     
 Grounding Line, (x,y)  -1574353.5166799999       -387915.16884000000     
 Grounding Line, (x,y)  -1572469.7254699999       -389745.78996800003     
 Grounding Line, (x,y)  -1572340.3539199999       -390805.65117999999     
 Grounding Line, (x,y)  -1574412.8992500000       -386778.74376099999     
 Grounding Line, (x,y)  -1576286.6639000000       -384174.24944400002     
 Grounding Line, (x,y)  -1575525.1133600001       -383610.27067400003     
 Grounding Line, (x,y)  -1577822.1086100000       -381615.23484799999     
 Grounding Line, (x,y)  -1578823.8578400000       -381648.56380700000     
 Grounding Line, (x,y)  -1573151.6676300000       -394274.34766199999     
 Grounding Line, (x,y)  -1574258.1360299999       -384912.28898399998     
 Grounding Line, (x,y)  -1575019.7814600000       -384698.74508199998     
 Grounding Line, (x,y)  -1573717.7591500001       -388994.56776900002     
 Grounding Line, (x,y)  -1573075.8334500000       -389368.77783400001     
 Grounding Line, (x,y)  -1577079.3133500000       -382076.97021399997     
 Grounding Line, (x,y)  -1577074.1162300000       -383390.36887100001     
 Grounding Line, (x,y)  -1576412.3866600001       -382623.36942800001     
 Grounding Line, (x,y)  -1579197.3723299999       -380626.42706299998     
 Grounding Line, (x,y)  -1575248.3972199999       -384144.36058199999     
 Grounding Line, (x,y)  -1573590.0646700000       -393692.13195100002     
 Grounding Line, (x,y)  -1576285.9559899999       -384174.95414099999     
 Grounding Line, (x,y)  -1575739.8204900001       -383088.56936600001     
 Grounding Line, (x,y)  -1574244.0113500000       -386267.22291299998     
 Grounding Line, (x,y)  -1572619.8452200000       -391694.16770699999     
 Grounding Line, (x,y)  -1573545.5241300000       -392593.86707799998     
 Grounding Line, (x,y)  -1574295.2573500001       -393251.53839599999     
 Grounding Line, (x,y)  -1574396.5261100000       -385661.92729700002     
 Grounding Line, (x,y)  -1573757.2019000000       -393221.24180399999     
 Grounding Line, (x,y)  -1579146.6288900001       -380100.81285900000     
 Grounding Line, (x,y)  -1574358.9332600001       -387286.13113599998     
 Grounding Line, (x,y)  -1573075.7356700001       -392038.07433999999     
 Grounding Line, (x,y)  -1579741.7086700001       -380734.87620200001     
 Grounding Line, (x,y)  -1580000.9697199999       -379696.34544100001     
 Grounding Line, (x,y)  -1532898.3031899999       -445184.49460099998     
 Grounding Line, (x,y)  -1539320.3931900000       -440016.30654899997     
 Grounding Line, (x,y)  -1539898.0561400000       -439734.83171800000     
 Grounding Line, (x,y)  -1538473.4851800001       -440861.17571899999     
 Grounding Line, (x,y)  -1537959.0508800000       -441102.30776900001     
 Grounding Line, (x,y)  -1532550.1401000000       -446376.01537799998     
 Grounding Line, (x,y)  -1532417.4217200000       -445665.18373400002     
 Grounding Line, (x,y)  -1540375.9886099999       -440081.38620600000     
 Grounding Line, (x,y)  -1537746.7901399999       -442172.10917399998     
 Grounding Line, (x,y)  -1538127.5582999999       -442586.44577300001     
 Grounding Line, (x,y)  -1533884.8955699999       -444721.91986600001     
 Grounding Line, (x,y)  -1534984.0521199999       -443832.83265200001     
 Grounding Line, (x,y)  -1535657.4697000000       -443654.55678300001     
 Grounding Line, (x,y)  -1538425.6551500000       -443071.27096599998     
 Grounding Line, (x,y)  -1537910.1817200000       -441602.58268499997     
 Grounding Line, (x,y)  -1537033.1319899999       -443964.89903700002     
 Grounding Line, (x,y)  -1540978.1405199999       -439786.58977500000     
 Grounding Line, (x,y)  -1534198.5982900001       -444207.53530699998     
 Grounding Line, (x,y)  -1537772.0885300001       -443756.94551500003     
 Grounding Line, (x,y)  -1538714.5764200001       -440248.52153299999     
 Grounding Line, (x,y)  -1533260.7665400000       -444705.66941500001     
 Grounding Line, (x,y)  -1536312.1089900001       -443833.36604499997     
 Grounding Line, (x,y)  -1534424.7626300000       -443680.79026699997     
GroundedSolver: Done
Loading user function library: [ElmerIceSolvers]...[GroundedSolver_post]
MAIN: 
MAIN: -------------------------------------
MAIN:  Time: 1/10  0.20014000000000001
MAIN: -------------------------------------
MAIN: 
SingleSolver: Attempting to call solver
SingleSolver: Solver Equation string is: mapcoordinate
StructuredMeshMapper: ---------------------------------------
StructuredMeshMapper: Performing mapping on a structured mesh
StructuredMeshMapper: ---------------------------------------
StructuredMeshMapper: Adjusting upper surface to maintain minimum height to: 0.1100E+02
StructuredMeshMapper: > Correct Surface < in case of intersecting upper and lower surface
StructuredMeshMapper:  Active coordinate mapping time:    6.4999999999981739E-005
Loading user function library: [StructuredMeshMapper]...[StructuredMeshMapper_post]
SingleSolver: Attempting to call solver
SingleSolver: Solver Equation string is: heightdepth
StructuredProjectToPlane: ------------------------------------------
StructuredProjectToPlane: Performing projection on a structured mesh
StructuredProjectToPlane: ------------------------------------------
DetectExtrudedStructure: Determining extruded structure
DetectExtrudedStructure: Unit vector of direction:   0.000   0.000   1.000
DetectExtrudedStructure: determine top and bottom pointers
DetectExtrudedStructure: Layered structure detected in 14 cycles
DetectExtrudedStructure:  Top and bottom pointer init time:    2.8799999999999937E-003
DetectExtrudedStructure: Top and bottom pointer init rounds: 14
DetectExtrudedStructure: Number of nodes at the top: 365
DetectExtrudedStructure: Number of nodes at the bottom: 365
StructuredProjectToPlane: Created variable: depth
StructuredProjectToPlane: Created variable: height
StructuredProjectToPlane:  Projection time:    1.3599999999991397E-004
StructuredProjectToPlane: ------------------------------------------
Loading user function library: [StructuredProjectToPlane]...[StructuredProjectToPlane_post]
SolveEquations: -------------------------------------
SolveEquations:  Coupled system iteration:            1
SolveEquations: -------------------------------------
ListToCRSMatrix: Matrix format changed from CRS to List
List_ToCRSMatrix: Number of entries in CRS matrix: 839403
List_ToCRSMatrix: Matrix format changed from List to CRS
SingleSolver: Attempting to call solver
SingleSolver: Solver Equation string is: normal vector
ComputeNormalSolver: Computing Normal Vector for Nodes
ComputeNormalSolver: End
Loading user function library: [ElmerIceSolvers]...[ComputeNormalSolver_post]
ListToCRSMatrix: Matrix format changed from CRS to List
List_ToCRSMatrix: Number of entries in CRS matrix: 19521
List_ToCRSMatrix: Matrix format changed from List to CRS
SingleSolver: Attempting to call solver
SingleSolver: Solver Equation string is: fw
GetHydrostaticLoads: Memory allocation done.
SeaPressure: Sea level =     0.0000
Update Periodic Nodes for: fwater 1: Start
UpdatePeriodicNodes: All Done
Update Periodic Nodes for: fwater 2: Start
UpdatePeriodicNodes: All Done
Update Periodic Nodes for: fwater 3: Start
UpdatePeriodicNodes: All Done
GetHydrostaticLoads: End
Loading user function library: [ElmerIceSolvers]...[GetHydrostaticLoads_post]
ListToCRSMatrix: Matrix format changed from CRS to List
List_ToCRSMatrix: Number of entries in CRS matrix: 1492272
List_ToCRSMatrix: Matrix format changed from List to CRS
SingleSolver: Attempting to call solver
SingleSolver: Solver Equation string is: navier-stokes
FlowSolver: Solving the Navier-Stokes equations
FlowSolve: Enforcing relative pressure relaxation
FlowSolve: 
FlowSolve: 
FlowSolve: -------------------------------------
FlowSolve:  NAVIER-STOKES ITERATION           1
FlowSolve: -------------------------------------
FlowSolve: 
FlowSolve: Starting Assembly...
FlowSolve: Assembly:
: .Saving bulk values for: navier-stokes
FlowSolve: Assembly done
DefUtils::DefaultDirichletBCs: Setting Dirichlet boundary conditions
EnforceDirichletConditions: Applying Dirichlet conditions using scaled diagonal
FlowSolve: Dirichlet conditions done
SolveLinearSystem: Assuming real valued linear system
SolveLinearSystem: Linear System Solver: direct
SolveLinearSystem: Parallel linear System Solver: direct
DirectSolver: Using direct method: mumps
SolveLinearSystem: Calculating nodal loads
ComputeChange: NS (ITER=1) (NRM,RELC): ( 0.26824505E-01  2.0000000     ) :: navier-stokes
SolveSystem: Linear system time (CPU,REAL) for flow solution:    79.41   85.77 (s)
FlowSolve: iter:    1 Assembly: (s)    1.53    1.53
FlowSolve: iter:    1 Solve:    (s)   79.41   79.41
FlowSolve:  Result Norm     :    2.6824504752685475E-002
FlowSolve:  Relative Change :    2.0000000000000000
FlowSolve: 
FlowSolve: 
FlowSolve: -------------------------------------
FlowSolve:  NAVIER-STOKES ITERATION           2
FlowSolve: -------------------------------------
FlowSolve: 
FlowSolve: Starting Assembly...
FlowSolve: Assembly:
: .Saving bulk values for: navier-stokes
FlowSolve: Assembly done
DefUtils::DefaultDirichletBCs: Setting Dirichlet boundary conditions
EnforceDirichletConditions: Applying Dirichlet conditions using scaled diagonal
FlowSolve: Dirichlet conditions done
SolveLinearSystem: Assuming real valued linear system
SolveLinearSystem: Linear System Solver: direct
SolveLinearSystem: Parallel linear System Solver: direct
DirectSolver: Using direct method: mumps
SolveLinearSystem: Calculating nodal loads
ComputeChange: NS (ITER=2) (NRM,RELC): (  7.8712929      1.9864147     ) :: navier-stokes
SolveSystem: Linear system time (CPU,REAL) for flow solution:    79.01   84.79 (s)
FlowSolve: iter:    2 Assembly: (s)    1.57    3.09
FlowSolve: iter:    2 Solve:    (s)   79.01  158.42
FlowSolve:  Result Norm     :    7.8712928613208684
FlowSolve:  Relative Change :    1.9864147347984924
FlowSolve: 
FlowSolve: 
FlowSolve: -------------------------------------
FlowSolve:  NAVIER-STOKES ITERATION           3
FlowSolve: -------------------------------------
FlowSolve: 
FlowSolve: Starting Assembly...
FlowSolve: Assembly:
: .Saving bulk values for: navier-stokes
FlowSolve: Assembly done
DefUtils::DefaultDirichletBCs: Setting Dirichlet boundary conditions
EnforceDirichletConditions: Applying Dirichlet conditions using scaled diagonal
FlowSolve: Dirichlet conditions done
SolveLinearSystem: Assuming real valued linear system
SolveLinearSystem: Linear System Solver: direct
SolveLinearSystem: Parallel linear System Solver: direct
DirectSolver: Using direct method: mumps
SolveLinearSystem: Calculating nodal loads
ComputeChange: NS (ITER=3) (NRM,RELC): (  126.92587      1.7664256     ) :: navier-stokes
SolveSystem: Linear system time (CPU,REAL) for flow solution:    78.63   84.39 (s)
FlowSolve: iter:    3 Assembly: (s)    1.55    4.65
FlowSolve: iter:    3 Solve:    (s)   78.63  237.05
FlowSolve:  Result Norm     :    126.92586924609387
FlowSolve:  Relative Change :    1.7664255615396847
FlowSolve: 
FlowSolve: 
FlowSolve: -------------------------------------
FlowSolve:  NAVIER-STOKES ITERATION           4
FlowSolve: -------------------------------------
FlowSolve: 
FlowSolve: Starting Assembly...
FlowSolve: Assembly:
: .Saving bulk values for: navier-stokes
FlowSolve: Assembly done
DefUtils::DefaultDirichletBCs: Setting Dirichlet boundary conditions
EnforceDirichletConditions: Applying Dirichlet conditions using scaled diagonal
FlowSolve: Dirichlet conditions done
SolveLinearSystem: Assuming real valued linear system
SolveLinearSystem: Linear System Solver: direct
SolveLinearSystem: Parallel linear System Solver: direct
DirectSolver: Using direct method: mumps
SolveLinearSystem: Calculating nodal loads
ComputeChange: NS (ITER=4) (NRM,RELC): (  307.45589     0.83120443     ) :: navier-stokes
SolveSystem: Linear system time (CPU,REAL) for flow solution:    78.76   84.82 (s)
FlowSolve: iter:    4 Assembly: (s)    1.55    6.20
FlowSolve: iter:    4 Solve:    (s)   78.76  315.81
FlowSolve:  Result Norm     :    307.45589161745625
FlowSolve:  Relative Change :   0.83120443184570669
FlowSolve: 
FlowSolve: 
FlowSolve: -------------------------------------
FlowSolve:  NAVIER-STOKES ITERATION           5
FlowSolve: -------------------------------------
FlowSolve: 
FlowSolve: Starting Assembly...
FlowSolve: Assembly:
: .Saving bulk values for: navier-stokes
FlowSolve: Assembly done
DefUtils::DefaultDirichletBCs: Setting Dirichlet boundary conditions
EnforceDirichletConditions: Applying Dirichlet conditions using scaled diagonal
FlowSolve: Dirichlet conditions done
SolveLinearSystem: Assuming real valued linear system
SolveLinearSystem: Linear System Solver: direct
SolveLinearSystem: Parallel linear System Solver: direct
DirectSolver: Using direct method: mumps
SolveLinearSystem: Calculating nodal loads
ComputeChange: NS (ITER=5) (NRM,RELC): (  441.23780     0.35737420     ) :: navier-stokes
SolveSystem: Linear system time (CPU,REAL) for flow solution:    79.31   85.37 (s)
FlowSolve: iter:    5 Assembly: (s)    1.55    7.76
FlowSolve: iter:    5 Solve:    (s)   79.31  395.12
FlowSolve:  Result Norm     :    441.23779575713138
FlowSolve:  Relative Change :   0.35737420094672484
FlowSolve: 
FlowSolve: 
FlowSolve: -------------------------------------
FlowSolve:  NAVIER-STOKES ITERATION           6
FlowSolve: -------------------------------------
FlowSolve: 
FlowSolve: Starting Assembly...
FlowSolve: Assembly:
: .Saving bulk values for: navier-stokes
FlowSolve: Assembly done
DefUtils::DefaultDirichletBCs: Setting Dirichlet boundary conditions
EnforceDirichletConditions: Applying Dirichlet conditions using scaled diagonal
FlowSolve: Dirichlet conditions done
SolveLinearSystem: Assuming real valued linear system
SolveLinearSystem: Linear System Solver: direct
SolveLinearSystem: Parallel linear System Solver: direct
DirectSolver: Using direct method: mumps
SolveLinearSystem: Calculating nodal loads
ComputeChange: NS (ITER=6) (NRM,RELC): (  533.59432     0.18948191     ) :: navier-stokes
SolveSystem: Linear system time (CPU,REAL) for flow solution:    78.87   84.89 (s)
FlowSolve: iter:    6 Assembly: (s)    1.56    9.31
FlowSolve: iter:    6 Solve:    (s)   78.87  473.99
FlowSolve:  Result Norm     :    533.59432294324222
FlowSolve:  Relative Change :   0.18948191265843536
FlowSolve: 
FlowSolve: 
FlowSolve: -------------------------------------
FlowSolve:  NAVIER-STOKES ITERATION           7
FlowSolve: -------------------------------------
FlowSolve: 
FlowSolve: Starting Assembly...
FlowSolve: Assembly:
: .Saving bulk values for: navier-stokes
FlowSolve: Assembly done
DefUtils::DefaultDirichletBCs: Setting Dirichlet boundary conditions
EnforceDirichletConditions: Applying Dirichlet conditions using scaled diagonal
FlowSolve: Dirichlet conditions done
SolveLinearSystem: Assuming real valued linear system
SolveLinearSystem: Linear System Solver: direct
SolveLinearSystem: Parallel linear System Solver: direct
DirectSolver: Using direct method: mumps
SolveLinearSystem: Calculating nodal loads
ComputeChange: NS (ITER=7) (NRM,RELC): (  602.37790     0.12110081     ) :: navier-stokes
SolveSystem: Linear system time (CPU,REAL) for flow solution:    80.19   86.04 (s)
FlowSolve: iter:    7 Assembly: (s)    1.69   11.00
FlowSolve: iter:    7 Solve:    (s)   80.19  554.18
FlowSolve:  Result Norm     :    602.37789818488818
FlowSolve:  Relative Change :   0.12110080504140709
FlowSolve: 
FlowSolve: 
FlowSolve: -------------------------------------
FlowSolve:  NAVIER-STOKES ITERATION           8
FlowSolve: -------------------------------------
FlowSolve: 
FlowSolve: Starting Assembly...
FlowSolve: Assembly:
: .Saving bulk values for: navier-stokes
FlowSolve: Assembly done
DefUtils::DefaultDirichletBCs: Setting Dirichlet boundary conditions
EnforceDirichletConditions: Applying Dirichlet conditions using scaled diagonal
FlowSolve: Dirichlet conditions done
SolveLinearSystem: Assuming real valued linear system
SolveLinearSystem: Linear System Solver: direct
SolveLinearSystem: Parallel linear System Solver: direct
DirectSolver: Using direct method: mumps
SolveLinearSystem: Calculating nodal loads
ComputeChange: NS (ITER=8) (NRM,RELC): (  659.39747     0.90379904E-01 ) :: navier-stokes
SolveSystem: Linear system time (CPU,REAL) for flow solution:    80.08   85.69 (s)
FlowSolve: iter:    8 Assembly: (s)    1.56   12.56
FlowSolve: iter:    8 Solve:    (s)   80.08  634.26
FlowSolve:  Result Norm     :    659.39746612772740
FlowSolve:  Relative Change :    9.0379903674695825E-002
Loading user function library: [FlowSolve]...[FlowSolver_post]
SolverActivate: Solver time (CPU,REAL) for navier-stokes:   647.06  694.92 (s)
ListToCRSMatrix: Matrix format changed from CRS to List
List_ToCRSMatrix: Number of entries in CRS matrix: 93267
List_ToCRSMatrix: Matrix format changed from List to CRS
SingleSolver: Attempting to call solver
SingleSolver: Solver Equation string is: stresssolver
ComputeDevStress: 
ComputeDevStress: 
ComputeDevStress: 
ComputeDevStress: 
ComputeDevStress: Starting assembly...
ComputeDevStress:  Component :   1
ComputeDevStress: Assembly done
DefUtils::DefaultDirichletBCs: Setting Dirichlet boundary conditions
ComputeDevStress: Set boundaries done
SolveLinearSystem: Assuming real valued linear system
SolveLinearSystem: Linear System Solver: iterative
SolveLinearSystem: Linear System Preconditioning: ilu1
SolveLinearSystem: Parallel linear System Solver: iterative
SParIterSolver: Solving linear in parallel with iterative methods
IterSolver: Using iterative method: bicgstab
CRS_IncompleteLU: ILU(1) (Real), Performing Factorization:
CRS_IncompleteLU: ILU(1) (Real), NOF nonzeros:    196412
CRS_IncompleteLU: ILU(1) (Real), filling (%) :       210
CRS_IncompleteLU: ILU(1) (Real), Factorization ready at (s):     0.02
       1 0.1688E-01
       2 0.3822E-03
       3 0.4243E-04
       4 0.3182E-05
       5 0.2200E-06
       6 0.9080E-08
       6 0.9080E-08
ComputeChange: NS (ITER=1) (NRM,RELC): (  11.034143      2.0000000     ) :: stresssolver
ComputeDevStress:  Component :   2
ComputeDevStress: Assembly done
DefUtils::DefaultDirichletBCs: Setting Dirichlet boundary conditions
ComputeDevStress: Set boundaries done
SolveLinearSystem: Assuming real valued linear system
SolveLinearSystem: Linear System Solver: iterative
SolveLinearSystem: Linear System Preconditioning: ilu1
SolveLinearSystem: Parallel linear System Solver: iterative
SParIterSolver: Solving linear in parallel with iterative methods
IterSolver: Using iterative method: bicgstab
CRS_IncompleteLU: ILU(1) (Real), Performing Factorization:
CRS_IncompleteLU: ILU(1) (Real), NOF nonzeros:    196412
CRS_IncompleteLU: ILU(1) (Real), filling (%) :       210
CRS_IncompleteLU: ILU(1) (Real), Factorization ready at (s):     0.01
       1 0.1772E-03
       2 0.4726E-05
       3 0.4695E-06
       4 0.2930E-07
       4 0.2930E-07
ComputeChange: NS (ITER=2) (NRM,RELC): (  11.057925     0.21530192E-02 ) :: stresssolver
ComputeDevStress:  Component :   3
ComputeDevStress:    Assembly:   5 % done
ComputeDevStress: Assembly done
DefUtils::DefaultDirichletBCs: Setting Dirichlet boundary conditions
ComputeDevStress: Set boundaries done
SolveLinearSystem: Assuming real valued linear system
SolveLinearSystem: Linear System Solver: iterative
SolveLinearSystem: Linear System Preconditioning: ilu1
SolveLinearSystem: Parallel linear System Solver: iterative
SParIterSolver: Solving linear in parallel with iterative methods
IterSolver: Using iterative method: bicgstab
CRS_IncompleteLU: ILU(1) (Real), Performing Factorization:
CRS_IncompleteLU: ILU(1) (Real), NOF nonzeros:    196412
CRS_IncompleteLU: ILU(1) (Real), filling (%) :       210
CRS_IncompleteLU: ILU(1) (Real), Factorization ready at (s):     0.01
       1 0.1989E-03
       2 0.6342E-05
       3 0.6244E-06
       4 0.3759E-07
       4 0.3759E-07
ComputeChange: NS (ITER=3) (NRM,RELC): (  11.060055     0.19258075E-03 ) :: stresssolver
ComputeDevStress:  Component :   4
ComputeDevStress: Assembly done
DefUtils::DefaultDirichletBCs: Setting Dirichlet boundary conditions
ComputeDevStress: Set boundaries done
SolveLinearSystem: Assuming real valued linear system
SolveLinearSystem: Linear System Solver: iterative
SolveLinearSystem: Linear System Preconditioning: ilu1
SolveLinearSystem: Parallel linear System Solver: iterative
SParIterSolver: Solving linear in parallel with iterative methods
IterSolver: Using iterative method: bicgstab
CRS_IncompleteLU: ILU(1) (Real), Performing Factorization:
CRS_IncompleteLU: ILU(1) (Real), NOF nonzeros:    196412
CRS_IncompleteLU: ILU(1) (Real), filling (%) :       210
CRS_IncompleteLU: ILU(1) (Real), Factorization ready at (s):     0.01
       1 0.3488E+01
       2 0.7904E-01
       3 0.8765E-02
       4 0.6560E-03
       5 0.4528E-04
       6 0.1873E-05
       7 0.9229E-07
       7 0.9229E-07
ComputeChange: NS (ITER=4) (NRM,RELC): ( 0.28759813      1.8986229     ) :: stresssolver
ComputeDevStress:  Component :   5
[...]
FlowSolve: 
FlowSolve: -------------------------------------
FlowSolve:  NAVIER-STOKES ITERATION           1
FlowSolve: -------------------------------------
FlowSolve: 
FlowSolve: Starting Assembly...
FlowSolve: Assembly:
: .Saving bulk values for: navier-stokes
FlowSolve: Assembly done
DefUtils::DefaultDirichletBCs: Setting Dirichlet boundary conditions
EnforceDirichletConditions: Applying Dirichlet conditions using scaled diagonal
FlowSolve: Dirichlet conditions done
SolveLinearSystem: Assuming real valued linear system
SolveLinearSystem: Linear System Solver: direct
SolveLinearSystem: Parallel linear System Solver: direct
DirectSolver: Using direct method: mumps
SolveLinearSystem: Calculating nodal loads
ComputeChange: NS (ITER=1) (NRM,RELC): (  970.21547     0.14404599E-01 ) :: navier-stokes
SolveSystem: Linear system time (CPU,REAL) for flow solution:    78.89   85.20 (s)
FlowSolve: iter:    1 Assembly: (s)    1.55    1.55
FlowSolve: iter:    1 Solve:    (s)   78.89   78.89
FlowSolve:  Result Norm     :    970.21547203579416
FlowSolve:  Relative Change :    1.4404598711913292E-002
Loading user function library: [FlowSolve]...[FlowSolver_post]
SolverActivate: Solver time (CPU,REAL) for navier-stokes:    80.44   86.76 (s)
ComputeChange: SS (ITER=11) (NRM,RELC): (  970.21547     0.14404599E-01 ) :: navier-stokes
SingleSolver: Attempting to call solver
SingleSolver: Solver Equation string is: stresssolver
ComputeDevStress: 
ComputeDevStress: 
ComputeDevStress: 
ComputeDevStress: 
ComputeDevStress: Starting assembly...
ComputeDevStress:  Component :   1
ComputeDevStress: Assembly done
DefUtils::DefaultDirichletBCs: Setting Dirichlet boundary conditions
ComputeDevStress: Set boundaries done
SolveLinearSystem: Assuming real valued linear system
SolveLinearSystem: Linear System Solver: iterative
SolveLinearSystem: Linear System Preconditioning: ilu1
SolveLinearSystem: Parallel linear System Solver: iterative
SParIterSolver: Solving linear in parallel with iterative methods
IterSolver: Using iterative method: bicgstab
CRS_IncompleteLU: ILU(1) (Real), Performing Factorization:
CRS_IncompleteLU: ILU(1) (Real), NOF nonzeros:    196412
CRS_IncompleteLU: ILU(1) (Real), filling (%) :       210
CRS_IncompleteLU: ILU(1) (Real), Factorization ready at (s):     0.01
       1 0.1685E-01
       2 0.3816E-03
       3 0.4235E-04
       4 0.3176E-05
       5 0.2195E-06
       6 0.9060E-08
       6 0.9060E-08
ComputeChange: NS (ITER=1) (NRM,RELC): (  11.047281      1.9751871     ) :: stresssolver
ComputeDevStress:  Component :   2
ComputeDevStress: Assembly done
DefUtils::DefaultDirichletBCs: Setting Dirichlet boundary conditions
ComputeDevStress: Set boundaries done
SolveLinearSystem: Assuming real valued linear system
SolveLinearSystem: Linear System Solver: iterative
SolveLinearSystem: Linear System Preconditioning: ilu1
SolveLinearSystem: Parallel linear System Solver: iterative
SParIterSolver: Solving linear in parallel with iterative methods
IterSolver: Using iterative method: bicgstab
CRS_IncompleteLU: ILU(1) (Real), Performing Factorization:
CRS_IncompleteLU: ILU(1) (Real), NOF nonzeros:    196412
CRS_IncompleteLU: ILU(1) (Real), filling (%) :       210
CRS_IncompleteLU: ILU(1) (Real), Factorization ready at (s):     0.01
       1 0.1808E-03
       2 0.5125E-05
       3 0.4943E-06
       4 0.2986E-07
       4 0.2986E-07
ComputeChange: NS (ITER=2) (NRM,RELC): (  11.067900     0.18646614E-02 ) :: stresssolver
ComputeDevStress:  Component :   3
ComputeDevStress:    Assembly:  29 % done
ComputeDevStress: Assembly done
DefUtils::DefaultDirichletBCs: Setting Dirichlet boundary conditions
ComputeDevStress: Set boundaries done
SolveLinearSystem: Assuming real valued linear system
SolveLinearSystem: Linear System Solver: iterative
SolveLinearSystem: Linear System Preconditioning: ilu1
SolveLinearSystem: Parallel linear System Solver: iterative
SParIterSolver: Solving linear in parallel with iterative methods
IterSolver: Using iterative method: bicgstab
CRS_IncompleteLU: ILU(1) (Real), Performing Factorization:
CRS_IncompleteLU: ILU(1) (Real), NOF nonzeros:    196412
CRS_IncompleteLU: ILU(1) (Real), filling (%) :       210
CRS_IncompleteLU: ILU(1) (Real), Factorization ready at (s):     0.01
       1 0.2057E-03
       2 0.6729E-05
       3 0.6354E-06
       4 0.3749E-07
       4 0.3749E-07
ComputeChange: NS (ITER=3) (NRM,RELC): (  11.073578     0.51287855E-03 ) :: stresssolver
ComputeDevStress:  Component :   4
ComputeDevStress: Assembly done
DefUtils::DefaultDirichletBCs: Setting Dirichlet boundary conditions
ComputeDevStress: Set boundaries done
SolveLinearSystem: Assuming real valued linear system
SolveLinearSystem: Linear System Solver: iterative
SolveLinearSystem: Linear System Preconditioning: ilu1
SolveLinearSystem: Parallel linear System Solver: iterative
SParIterSolver: Solving linear in parallel with iterative methods
IterSolver: Using iterative method: bicgstab
CRS_IncompleteLU: ILU(1) (Real), Performing Factorization:
CRS_IncompleteLU: ILU(1) (Real), NOF nonzeros:    196412
CRS_IncompleteLU: ILU(1) (Real), filling (%) :       210
CRS_IncompleteLU: ILU(1) (Real), Factorization ready at (s):     0.01
       1 0.3242E+01
       2 0.7348E-01
       3 0.8147E-02
       4 0.6094E-03
       5 0.4204E-04
       6 0.1741E-05
       7 0.8572E-07
       7 0.8572E-07
ComputeChange: NS (ITER=4) (NRM,RELC): ( 0.29416347      1.8964919     ) :: stresssolver
ComputeDevStress:  Component :   5
ComputeDevStress:    Assembly:  56 % done
ComputeDevStress: Assembly done
DefUtils::DefaultDirichletBCs: Setting Dirichlet boundary conditions
ComputeDevStress: Set boundaries done
SolveLinearSystem: Assuming real valued linear system
SolveLinearSystem: Linear System Solver: iterative
SolveLinearSystem: Linear System Preconditioning: ilu1
SolveLinearSystem: Parallel linear System Solver: iterative
SParIterSolver: Solving linear in parallel with iterative methods
IterSolver: Using iterative method: bicgstab
CRS_IncompleteLU: ILU(1) (Real), Performing Factorization:
CRS_IncompleteLU: ILU(1) (Real), NOF nonzeros:    196412
CRS_IncompleteLU: ILU(1) (Real), filling (%) :       210
CRS_IncompleteLU: ILU(1) (Real), Factorization ready at (s):     0.01
       1 0.6004E-01
       2 0.1884E-02
       3 0.1727E-03
       4 0.1016E-04
       5 0.6985E-06
       6 0.4152E-07
       6 0.4152E-07
ComputeChange: NS (ITER=5) (NRM,RELC): ( 0.46608825E-01  1.4529036     ) :: stresssolver
ComputeDevStress:  Component :   6
ComputeDevStress: Assembly done
DefUtils::DefaultDirichletBCs: Setting Dirichlet boundary conditions
ComputeDevStress: Set boundaries done
SolveLinearSystem: Assuming real valued linear system
SolveLinearSystem: Linear System Solver: iterative
SolveLinearSystem: Linear System Preconditioning: ilu1
SolveLinearSystem: Parallel linear System Solver: iterative
SParIterSolver: Solving linear in parallel with iterative methods
IterSolver: Using iterative method: bicgstab
CRS_IncompleteLU: ILU(1) (Real), Performing Factorization:
CRS_IncompleteLU: ILU(1) (Real), NOF nonzeros:    196412
CRS_IncompleteLU: ILU(1) (Real), filling (%) :       210
CRS_IncompleteLU: ILU(1) (Real), Factorization ready at (s):     0.01
       1 0.1765E-01
       2 0.6596E-03
       3 0.5185E-04
       4 0.2818E-05
       5 0.2198E-06
       6 0.1479E-07
       6 0.1479E-07
ComputeChange: NS (ITER=6) (NRM,RELC): ( 0.69115238E-01 0.38896686     ) :: stresssolver
ComputeDevStress:  Result Norm   :    2.2279530237176339        4.6608825252624483E-002
ComputeDevStress:  Relative Change :    1.9180346311115255
Loading user function library: [ElmerIceSolvers]...[ComputeDevStress_post]
ComputeChange: SS (ITER=11) (NRM,RELC): ( 0.69115238E-01 0.22987694E-02 ) :: stresssolver
SingleSolver: Attempting to call solver
SingleSolver: Solver Equation string is: resultoutput
ResultOutputSolver: -------------------------------------
ResultOutputSolver: Working on mesh:
ResultOutputSolver: Dimension of mesh is: 3
ResultOutputSolver: Saving in unstructured VTK XML (.vtu) format
GenerateSaveMask: Number of active elements 10608 out of 10608
GenerateSaveMask: Number of geometry nodes 5475 out of 5475
VtuOutputSolver: Setting offset for boundary entities: 100
VtuOutputSolver: Writing the vtu file: ./vtuoutputs/tg_sr_noss_run1_128np001_t0011.vtu
AscBinWriteInit: Initializing buffered ascii/binary writing
ResultOutputSolver: -------------------------------------
Loading user function library: [ResultOutputSolve]...[ResultOutputSolver_post]
SolveEquations: -------------------------------------
SolveEquations:  Coupled system iteration:           12
SolveEquations: -------------------------------------
SingleSolver: Attempting to call solver
SingleSolver: Solver Equation string is: normal vector
ComputeNormalSolver: Computing Normal Vector for Nodes
ComputeNormalSolver: End
Loading user function library: [ElmerIceSolvers]...[ComputeNormalSolver_post]
ComputeChange: SS (ITER=12) (NRM,RELC): ( 0.25554476      0.0000000     ) :: normal vector
SingleSolver: Attempting to call solver
SingleSolver: Solver Equation string is: fw
Update Periodic Nodes for: fwater 1: Start
UpdatePeriodicNodes: All Done
Update Periodic Nodes for: fwater 2: Start
UpdatePeriodicNodes: All Done
Update Periodic Nodes for: fwater 3: Start
UpdatePeriodicNodes: All Done
GetHydrostaticLoads: End
Loading user function library: [ElmerIceSolvers]...[GetHydrostaticLoads_post]
ComputeChange: SS (ITER=12) (NRM,RELC): ( 0.10298061E+09  0.0000000     ) :: fw
SingleSolver: Attempting to call solver
SingleSolver: Solver Equation string is: navier-stokes
FlowSolver: Solving the Navier-Stokes equations
FlowSolve: 
FlowSolve: 
FlowSolve: -------------------------------------
FlowSolve:  NAVIER-STOKES ITERATION           1
FlowSolve: -------------------------------------
FlowSolve: 
FlowSolve: Starting Assembly...
FlowSolve: Assembly:
: .Saving bulk values for: navier-stokes
FlowSolve: Assembly done
DefUtils::DefaultDirichletBCs: Setting Dirichlet boundary conditions
EnforceDirichletConditions: Applying Dirichlet conditions using scaled diagonal
FlowSolve: Dirichlet conditions done
SolveLinearSystem: Assuming real valued linear system
SolveLinearSystem: Linear System Solver: direct
SolveLinearSystem: Parallel linear System Solver: direct
DirectSolver: Using direct method: mumps
SolveLinearSystem: Calculating nodal loads
ComputeChange: NS (ITER=1) (NRM,RELC): (  981.66714     0.11733971E-01 ) :: navier-stokes
SolveSystem: Linear system time (CPU,REAL) for flow solution:    78.72   84.48 (s)
FlowSolve: iter:    1 Assembly: (s)    1.55    1.55
FlowSolve: iter:    1 Solve:    (s)   78.72   78.72
FlowSolve:  Result Norm     :    981.66713878331177
FlowSolve:  Relative Change :    1.1733970766522607E-002
Loading user function library: [FlowSolve]...[FlowSolver_post]
SolverActivate: Solver time (CPU,REAL) for navier-stokes:    80.26   86.04 (s)
ComputeChange: SS (ITER=12) (NRM,RELC): (  981.66714     0.11733971E-01 ) :: navier-stokes
SingleSolver: Attempting to call solver
SingleSolver: Solver Equation string is: stresssolver
ComputeDevStress: 
ComputeDevStress: 
ComputeDevStress: 
ComputeDevStress: 
ComputeDevStress: Starting assembly...
ComputeDevStress:  Component :   1
ComputeDevStress: Assembly done
DefUtils::DefaultDirichletBCs: Setting Dirichlet boundary conditions
ComputeDevStress: Set boundaries done
SolveLinearSystem: Assuming real valued linear system
SolveLinearSystem: Linear System Solver: iterative
SolveLinearSystem: Linear System Preconditioning: ilu1
SolveLinearSystem: Parallel linear System Solver: iterative
SParIterSolver: Solving linear in parallel with iterative methods
IterSolver: Using iterative method: bicgstab
CRS_IncompleteLU: ILU(1) (Real), Performing Factorization:
CRS_IncompleteLU: ILU(1) (Real), NOF nonzeros:    196412
CRS_IncompleteLU: ILU(1) (Real), filling (%) :       210
CRS_IncompleteLU: ILU(1) (Real), Factorization ready at (s):     0.01
       1 0.1685E-01
       2 0.3816E-03
       3 0.4235E-04
       4 0.3176E-05
       5 0.2195E-06
       6 0.9060E-08
       6 0.9060E-08
ComputeChange: NS (ITER=1) (NRM,RELC): (  11.047286      1.9751304     ) :: stresssolver
ComputeDevStress:  Component :   2
ComputeDevStress: Assembly done
DefUtils::DefaultDirichletBCs: Setting Dirichlet boundary conditions
ComputeDevStress: Set boundaries done
SolveLinearSystem: Assuming real valued linear system
SolveLinearSystem: Linear System Solver: iterative
SolveLinearSystem: Linear System Preconditioning: ilu1
SolveLinearSystem: Parallel linear System Solver: iterative
SParIterSolver: Solving linear in parallel with iterative methods
IterSolver: Using iterative method: bicgstab
CRS_IncompleteLU: ILU(1) (Real), Performing Factorization:
CRS_IncompleteLU: ILU(1) (Real), NOF nonzeros:    196412
CRS_IncompleteLU: ILU(1) (Real), filling (%) :       210
CRS_IncompleteLU: ILU(1) (Real), Factorization ready at (s):     0.01
       1 0.1808E-03
       2 0.5129E-05
       3 0.4945E-06
       4 0.2987E-07
       4 0.2987E-07
ComputeChange: NS (ITER=2) (NRM,RELC): (  11.067849     0.18595829E-02 ) :: stresssolver
ComputeDevStress:  Component :   3
ComputeDevStress:    Assembly:  30 % done
ComputeDevStress: Assembly done
DefUtils::DefaultDirichletBCs: Setting Dirichlet boundary conditions
ComputeDevStress: Set boundaries done
SolveLinearSystem: Assuming real valued linear system
SolveLinearSystem: Linear System Solver: iterative
SolveLinearSystem: Linear System Preconditioning: ilu1
SolveLinearSystem: Parallel linear System Solver: iterative
SParIterSolver: Solving linear in parallel with iterative methods
IterSolver: Using iterative method: bicgstab
CRS_IncompleteLU: ILU(1) (Real), Performing Factorization:
CRS_IncompleteLU: ILU(1) (Real), NOF nonzeros:    196412
CRS_IncompleteLU: ILU(1) (Real), filling (%) :       210
CRS_IncompleteLU: ILU(1) (Real), Factorization ready at (s):     0.01
       1 0.2057E-03
       2 0.6732E-05
       3 0.6353E-06
       4 0.3747E-07
       4 0.3747E-07
ComputeChange: NS (ITER=3) (NRM,RELC): (  11.073623     0.52156396E-03 ) :: stresssolver
ComputeDevStress:  Component :   4
ComputeDevStress: Assembly done
DefUtils::DefaultDirichletBCs: Setting Dirichlet boundary conditions
ComputeDevStress: Set boundaries done
SolveLinearSystem: Assuming real valued linear system
SolveLinearSystem: Linear System Solver: iterative
SolveLinearSystem: Linear System Preconditioning: ilu1
SolveLinearSystem: Parallel linear System Solver: iterative
SParIterSolver: Solving linear in parallel with iterative methods
IterSolver: Using iterative method: bicgstab
CRS_IncompleteLU: ILU(1) (Real), Performing Factorization:
CRS_IncompleteLU: ILU(1) (Real), NOF nonzeros:    196412
CRS_IncompleteLU: ILU(1) (Real), filling (%) :       210
CRS_IncompleteLU: ILU(1) (Real), Factorization ready at (s):     0.01
       1 0.3240E+01
       2 0.7344E-01
       3 0.8142E-02
       4 0.6090E-03
       5 0.4202E-04
       6 0.1739E-05
       7 0.8567E-07
       7 0.8567E-07
ComputeChange: NS (ITER=4) (NRM,RELC): ( 0.29415547      1.8964950     ) :: stresssolver
ComputeDevStress:  Component :   5
ComputeDevStress:    Assembly:  62 % done
ComputeDevStress: Assembly done
DefUtils::DefaultDirichletBCs: Setting Dirichlet boundary conditions
ComputeDevStress: Set boundaries done
SolveLinearSystem: Assuming real valued linear system
SolveLinearSystem: Linear System Solver: iterative
SolveLinearSystem: Linear System Preconditioning: ilu1
SolveLinearSystem: Parallel linear System Solver: iterative
SParIterSolver: Solving linear in parallel with iterative methods
IterSolver: Using iterative method: bicgstab
CRS_IncompleteLU: ILU(1) (Real), Performing Factorization:
CRS_IncompleteLU: ILU(1) (Real), NOF nonzeros:    196412
CRS_IncompleteLU: ILU(1) (Real), filling (%) :       210
CRS_IncompleteLU: ILU(1) (Real), Factorization ready at (s):     0.01
       1 0.6001E-01
       2 0.1884E-02
       3 0.1726E-03
       4 0.1015E-04
       5 0.6984E-06
       6 0.4154E-07
       6 0.4154E-07
ComputeChange: NS (ITER=5) (NRM,RELC): ( 0.46629944E-01  1.4526768     ) :: stresssolver
ComputeDevStress:  Component :   6
ComputeDevStress: Assembly done
DefUtils::DefaultDirichletBCs: Setting Dirichlet boundary conditions
ComputeDevStress: Set boundaries done
SolveLinearSystem: Assuming real valued linear system
SolveLinearSystem: Linear System Solver: iterative
SolveLinearSystem: Linear System Preconditioning: ilu1
SolveLinearSystem: Parallel linear System Solver: iterative
SParIterSolver: Solving linear in parallel with iterative methods
IterSolver: Using iterative method: bicgstab
CRS_IncompleteLU: ILU(1) (Real), Performing Factorization:
CRS_IncompleteLU: ILU(1) (Real), NOF nonzeros:    196412
CRS_IncompleteLU: ILU(1) (Real), filling (%) :       210
CRS_IncompleteLU: ILU(1) (Real), Factorization ready at (s):     0.01
       1 0.1765E-01
       2 0.6592E-03
       3 0.5186E-04
       4 0.2818E-05
       5 0.2197E-06
       6 0.1477E-07
       6 0.1477E-07
ComputeChange: NS (ITER=6) (NRM,RELC): ( 0.69236816E-01 0.39022187     ) :: stresssolver
ComputeDevStress:  Result Norm   :    2.2279265870819853        4.6629943731539926E-002
ComputeDevStress:  Relative Change :    1.9179973008367270
Loading user function library: [ElmerIceSolvers]...[ComputeDevStress_post]
ComputeChange: SS (ITER=12) (NRM,RELC): ( 0.69236816E-01 0.17575089E-02 ) :: stresssolver
SingleSolver: Attempting to call solver
SingleSolver: Solver Equation string is: resultoutput
ResultOutputSolver: -------------------------------------
ResultOutputSolver: Working on mesh:
ResultOutputSolver: Dimension of mesh is: 3
ResultOutputSolver: Saving in unstructured VTK XML (.vtu) format
GenerateSaveMask: Number of active elements 10608 out of 10608
GenerateSaveMask: Number of geometry nodes 5475 out of 5475
VtuOutputSolver: Setting offset for boundary entities: 100
VtuOutputSolver: Writing the vtu file: ./vtuoutputs/tg_sr_noss_run1_128np001_t0012.vtu
AscBinWriteInit: Initializing buffered ascii/binary writing
ResultOutputSolver: -------------------------------------
Loading user function library: [ResultOutputSolve]...[ResultOutputSolver_post]
SolveEquations: -------------------------------------
SolveEquations:  Coupled system iteration:           13
SolveEquations: -------------------------------------
SingleSolver: Attempting to call solver
SingleSolver: Solver Equation string is: normal vector
ComputeNormalSolver: Computing Normal Vector for Nodes
ComputeNormalSolver: End
Loading user function library: [ElmerIceSolvers]...[ComputeNormalSolver_post]
ComputeChange: SS (ITER=13) (NRM,RELC): ( 0.25554476      0.0000000     ) :: normal vector
SingleSolver: Attempting to call solver
SingleSolver: Solver Equation string is: fw
Update Periodic Nodes for: fwater 1: Start
UpdatePeriodicNodes: All Done
Update Periodic Nodes for: fwater 2: Start
UpdatePeriodicNodes: All Done
Update Periodic Nodes for: fwater 3: Start
UpdatePeriodicNodes: All Done
GetHydrostaticLoads: End
Loading user function library: [ElmerIceSolvers]...[GetHydrostaticLoads_post]
ComputeChange: SS (ITER=13) (NRM,RELC): ( 0.10298061E+09  0.0000000     ) :: fw
SingleSolver: Attempting to call solver
SingleSolver: Solver Equation string is: navier-stokes
FlowSolver: Solving the Navier-Stokes equations
FlowSolve: 
FlowSolve: 
FlowSolve: -------------------------------------
FlowSolve:  NAVIER-STOKES ITERATION           1
FlowSolve: -------------------------------------
FlowSolve: 
FlowSolve: Starting Assembly...
FlowSolve: Assembly:
: .Saving bulk values for: navier-stokes
FlowSolve: Assembly done
DefUtils::DefaultDirichletBCs: Setting Dirichlet boundary conditions
EnforceDirichletConditions: Applying Dirichlet conditions using scaled diagonal
FlowSolve: Dirichlet conditions done
SolveLinearSystem: Assuming real valued linear system
SolveLinearSystem: Linear System Solver: direct
SolveLinearSystem: Parallel linear System Solver: direct
DirectSolver: Using direct method: mumps
