ELMER SOLVER (v 9.0) STARTED AT: 2021/04/09 19:55:19
ELMER SOLVER (v 9.0) STARTED AT: 2021/04/09 19:55:19
ELMER SOLVER (v 9.0) STARTED AT: 2021/04/09 19:55:19
ELMER SOLVER (v 9.0) STARTED AT: 2021/04/09 19:55:19
ELMER SOLVER (v 9.0) STARTED AT: 2021/04/09 19:55:19
ELMER SOLVER (v 9.0) STARTED AT: 2021/04/09 19:55:19
ELMER SOLVER (v 9.0) STARTED AT: 2021/04/09 19:55:19
ELMER SOLVER (v 9.0) STARTED AT: 2021/04/09 19:55:19
ELMER SOLVER (v 9.0) STARTED AT: 2021/04/09 19:55:19
ELMER SOLVER (v 9.0) STARTED AT: 2021/04/09 19:55:19
ELMER SOLVER (v 9.0) STARTED AT: 2021/04/09 19:55:19
ELMER SOLVER (v 9.0) STARTED AT: 2021/04/09 19:55:19
ELMER SOLVER (v 9.0) STARTED AT: 2021/04/09 19:55:19
ELMER SOLVER (v 9.0) STARTED AT: 2021/04/09 19:55:19
ELMER SOLVER (v 9.0) STARTED AT: 2021/04/09 19:55:19
ELMER SOLVER (v 9.0) STARTED AT: 2021/04/09 19:55:19
ELMER SOLVER (v 9.0) STARTED AT: 2021/04/09 19:55:19
ELMER SOLVER (v 9.0) STARTED AT: 2021/04/09 19:55:19
ELMER SOLVER (v 9.0) STARTED AT: 2021/04/09 19:55:19
ELMER SOLVER (v 9.0) STARTED AT: 2021/04/09 19:55:19
ELMER SOLVER (v 9.0) STARTED AT: 2021/04/09 19:55:19
ELMER SOLVER (v 9.0) STARTED AT: 2021/04/09 19:55:19
ELMER SOLVER (v 9.0) STARTED AT: 2021/04/09 19:55:19
ELMER SOLVER (v 9.0) STARTED AT: 2021/04/09 19:55:19
ELMER SOLVER (v 9.0) STARTED AT: 2021/04/09 19:55:19
ELMER SOLVER (v 9.0) STARTED AT: 2021/04/09 19:55:19
ELMER SOLVER (v 9.0) STARTED AT: 2021/04/09 19:55:19
ELMER SOLVER (v 9.0) STARTED AT: 2021/04/09 19:55:19
ELMER SOLVER (v 9.0) STARTED AT: 2021/04/09 19:55:19
ELMER SOLVER (v 9.0) STARTED AT: 2021/04/09 19:55:19
ELMER SOLVER (v 9.0) STARTED AT: 2021/04/09 19:55:19
ELMER SOLVER (v 9.0) STARTED AT: 2021/04/09 19:55:19
ELMER SOLVER (v 9.0) STARTED AT: 2021/04/09 19:55:19
ELMER SOLVER (v 9.0) STARTED AT: 2021/04/09 19:55:19
ELMER SOLVER (v 9.0) STARTED AT: 2021/04/09 19:55:19
ELMER SOLVER (v 9.0) STARTED AT: 2021/04/09 19:55:19
ELMER SOLVER (v 9.0) STARTED AT: 2021/04/09 19:55:19
ELMER SOLVER (v 9.0) STARTED AT: 2021/04/09 19:55:19
ELMER SOLVER (v 9.0) STARTED AT: 2021/04/09 19:55:19
ELMER SOLVER (v 9.0) STARTED AT: 2021/04/09 19:55:19
ELMER SOLVER (v 9.0) STARTED AT: 2021/04/09 19:55:19
ELMER SOLVER (v 9.0) STARTED AT: 2021/04/09 19:55:19
ELMER SOLVER (v 9.0) STARTED AT: 2021/04/09 19:55:19
ELMER SOLVER (v 9.0) STARTED AT: 2021/04/09 19:55:19
ELMER SOLVER (v 9.0) STARTED AT: 2021/04/09 19:55:19
ELMER SOLVER (v 9.0) STARTED AT: 2021/04/09 19:55:19
ELMER SOLVER (v 9.0) STARTED AT: 2021/04/09 19:55:19
ELMER SOLVER (v 9.0) STARTED AT: 2021/04/09 19:55:19
ELMER SOLVER (v 9.0) STARTED AT: 2021/04/09 19:55:19
ELMER SOLVER (v 9.0) STARTED AT: 2021/04/09 19:55:19
ELMER SOLVER (v 9.0) STARTED AT: 2021/04/09 19:55:19
ELMER SOLVER (v 9.0) STARTED AT: 2021/04/09 19:55:19
ELMER SOLVER (v 9.0) STARTED AT: 2021/04/09 19:55:19
ELMER SOLVER (v 9.0) STARTED AT: 2021/04/09 19:55:19
ELMER SOLVER (v 9.0) STARTED AT: 2021/04/09 19:55:19
ELMER SOLVER (v 9.0) STARTED AT: 2021/04/09 19:55:19
ELMER SOLVER (v 9.0) STARTED AT: 2021/04/09 19:55:19
ELMER SOLVER (v 9.0) STARTED AT: 2021/04/09 19:55:19
ELMER SOLVER (v 9.0) STARTED AT: 2021/04/09 19:55:19
ELMER SOLVER (v 9.0) STARTED AT: 2021/04/09 19:55:19
ELMER SOLVER (v 9.0) STARTED AT: 2021/04/09 19:55:19
ELMER SOLVER (v 9.0) STARTED AT: 2021/04/09 19:55:19
ELMER SOLVER (v 9.0) STARTED AT: 2021/04/09 19:55:19
ELMER SOLVER (v 9.0) STARTED AT: 2021/04/09 19:55:19
ELMER SOLVER (v 9.0) STARTED AT: 2021/04/09 19:55:19
ELMER SOLVER (v 9.0) STARTED AT: 2021/04/09 19:55:19
ELMER SOLVER (v 9.0) STARTED AT: 2021/04/09 19:55:19
ELMER SOLVER (v 9.0) STARTED AT: 2021/04/09 19:55:19
ELMER SOLVER (v 9.0) STARTED AT: 2021/04/09 19:55:19
ELMER SOLVER (v 9.0) STARTED AT: 2021/04/09 19:55:19
ELMER SOLVER (v 9.0) STARTED AT: 2021/04/09 19:55:19
ELMER SOLVER (v 9.0) STARTED AT: 2021/04/09 19:55:19
ELMER SOLVER (v 9.0) STARTED AT: 2021/04/09 19:55:19
ELMER SOLVER (v 9.0) STARTED AT: 2021/04/09 19:55:19
ELMER SOLVER (v 9.0) STARTED AT: 2021/04/09 19:55:19
ELMER SOLVER (v 9.0) STARTED AT: 2021/04/09 19:55:19
ELMER SOLVER (v 9.0) STARTED AT: 2021/04/09 19:55:19
ELMER SOLVER (v 9.0) STARTED AT: 2021/04/09 19:55:19
ELMER SOLVER (v 9.0) STARTED AT: 2021/04/09 19:55:19
ELMER SOLVER (v 9.0) STARTED AT: 2021/04/09 19:55:19
ELMER SOLVER (v 9.0) STARTED AT: 2021/04/09 19:55:19
ELMER SOLVER (v 9.0) STARTED AT: 2021/04/09 19:55:19
ELMER SOLVER (v 9.0) STARTED AT: 2021/04/09 19:55:19
ELMER SOLVER (v 9.0) STARTED AT: 2021/04/09 19:55:19
ELMER SOLVER (v 9.0) STARTED AT: 2021/04/09 19:55:19
ELMER SOLVER (v 9.0) STARTED AT: 2021/04/09 19:55:19
ELMER SOLVER (v 9.0) STARTED AT: 2021/04/09 19:55:19
ELMER SOLVER (v 9.0) STARTED AT: 2021/04/09 19:55:19
ELMER SOLVER (v 9.0) STARTED AT: 2021/04/09 19:55:19
ELMER SOLVER (v 9.0) STARTED AT: 2021/04/09 19:55:19
ELMER SOLVER (v 9.0) STARTED AT: 2021/04/09 19:55:19
ELMER SOLVER (v 9.0) STARTED AT: 2021/04/09 19:55:19
ELMER SOLVER (v 9.0) STARTED AT: 2021/04/09 19:55:19
ELMER SOLVER (v 9.0) STARTED AT: 2021/04/09 19:55:19
ELMER SOLVER (v 9.0) STARTED AT: 2021/04/09 19:55:19
ELMER SOLVER (v 9.0) STARTED AT: 2021/04/09 19:55:19
ELMER SOLVER (v 9.0) STARTED AT: 2021/04/09 19:55:19
ELMER SOLVER (v 9.0) STARTED AT: 2021/04/09 19:55:19
ELMER SOLVER (v 9.0) STARTED AT: 2021/04/09 19:55:19
ELMER SOLVER (v 9.0) STARTED AT: 2021/04/09 19:55:19
ELMER SOLVER (v 9.0) STARTED AT: 2021/04/09 19:55:19
ELMER SOLVER (v 9.0) STARTED AT: 2021/04/09 19:55:19
ELMER SOLVER (v 9.0) STARTED AT: 2021/04/09 19:55:19
ELMER SOLVER (v 9.0) STARTED AT: 2021/04/09 19:55:19
ELMER SOLVER (v 9.0) STARTED AT: 2021/04/09 19:55:19
ELMER SOLVER (v 9.0) STARTED AT: 2021/04/09 19:55:19
ELMER SOLVER (v 9.0) STARTED AT: 2021/04/09 19:55:19
ELMER SOLVER (v 9.0) STARTED AT: 2021/04/09 19:55:19
ELMER SOLVER (v 9.0) STARTED AT: 2021/04/09 19:55:19
ELMER SOLVER (v 9.0) STARTED AT: 2021/04/09 19:55:19
ELMER SOLVER (v 9.0) STARTED AT: 2021/04/09 19:55:19
ELMER SOLVER (v 9.0) STARTED AT: 2021/04/09 19:55:19
ELMER SOLVER (v 9.0) STARTED AT: 2021/04/09 19:55:19
ELMER SOLVER (v 9.0) STARTED AT: 2021/04/09 19:55:19
ELMER SOLVER (v 9.0) STARTED AT: 2021/04/09 19:55:19
ELMER SOLVER (v 9.0) STARTED AT: 2021/04/09 19:55:19
ELMER SOLVER (v 9.0) STARTED AT: 2021/04/09 19:55:19
ELMER SOLVER (v 9.0) STARTED AT: 2021/04/09 19:55:19
ELMER SOLVER (v 9.0) STARTED AT: 2021/04/09 19:55:19
ELMER SOLVER (v 9.0) STARTED AT: 2021/04/09 19:55:19
ELMER SOLVER (v 9.0) STARTED AT: 2021/04/09 19:55:19
ELMER SOLVER (v 9.0) STARTED AT: 2021/04/09 19:55:19
ELMER SOLVER (v 9.0) STARTED AT: 2021/04/09 19:55:19
ELMER SOLVER (v 9.0) STARTED AT: 2021/04/09 19:55:19
ELMER SOLVER (v 9.0) STARTED AT: 2021/04/09 19:55:19
ELMER SOLVER (v 9.0) STARTED AT: 2021/04/09 19:55:19
ELMER SOLVER (v 9.0) STARTED AT: 2021/04/09 19:55:19
ELMER SOLVER (v 9.0) STARTED AT: 2021/04/09 19:55:19
ParCommInit:  Initialize #PEs:          128
ParCommInit:  Initialize #PEs:          128
ParCommInit:  Initialize #PEs:          128
ParCommInit:  Initialize #PEs:          128
ParCommInit:  Initialize #PEs:          128
ParCommInit:  Initialize #PEs:          128
ParCommInit:  Initialize #PEs:          128
ParCommInit:  Initialize #PEs:          128
ParCommInit:  Initialize #PEs:          128
ParCommInit:  Initialize #PEs:          128
ParCommInit:  Initialize #PEs:          128
ParCommInit:  Initialize #PEs:          128
ParCommInit:  Initialize #PEs:          128
ParCommInit:  Initialize #PEs:          128
ParCommInit:  Initialize #PEs:          128
ParCommInit:  Initialize #PEs:          128
ParCommInit:  Initialize #PEs:          128
ParCommInit:  Initialize #PEs:          128
ParCommInit:  Initialize #PEs:          128
ParCommInit:  Initialize #PEs:          128
ParCommInit:  Initialize #PEs:          128
ParCommInit:  Initialize #PEs:          128
ParCommInit:  Initialize #PEs:          128
ParCommInit:  Initialize #PEs:          128
ParCommInit:  Initialize #PEs:          128
ParCommInit:  Initialize #PEs:          128
ParCommInit:  Initialize #PEs:          128
ParCommInit:  Initialize #PEs:          128
ParCommInit:  Initialize #PEs:          128
ParCommInit:  Initialize #PEs:          128
ParCommInit:  Initialize #PEs:          128
ParCommInit:  Initialize #PEs:          128
ParCommInit:  Initialize #PEs:          128
ParCommInit:  Initialize #PEs:          128
ParCommInit:  Initialize #PEs:          128
ParCommInit:  Initialize #PEs:          128
ParCommInit:  Initialize #PEs:          128
ParCommInit:  Initialize #PEs:          128
ParCommInit:  Initialize #PEs:          128
ParCommInit:  Initialize #PEs:          128
ParCommInit:  Initialize #PEs:          128
ParCommInit:  Initialize #PEs:          128
ParCommInit:  Initialize #PEs:          128
ParCommInit:  Initialize #PEs:          128
ParCommInit:  Initialize #PEs:          128
ParCommInit:  Initialize #PEs:          128
ParCommInit:  Initialize #PEs:          128
ParCommInit:  Initialize #PEs:          128
ParCommInit:  Initialize #PEs:          128
ParCommInit:  Initialize #PEs:          128
ParCommInit:  Initialize #PEs:          128
ParCommInit:  Initialize #PEs:          128
ParCommInit:  Initialize #PEs:          128
ParCommInit:  Initialize #PEs:          128
ParCommInit:  Initialize #PEs:          128
ParCommInit:  Initialize #PEs:          128
ParCommInit:  Initialize #PEs:          128
ParCommInit:  Initialize #PEs:          128
ParCommInit:  Initialize #PEs:          128
ParCommInit:  Initialize #PEs:          128
ParCommInit:  Initialize #PEs:          128
ParCommInit:  Initialize #PEs:          128
ParCommInit:  Initialize #PEs:          128
ParCommInit:  Initialize #PEs:          128
ParCommInit:  Initialize #PEs:          128
ParCommInit:  Initialize #PEs:          128
ParCommInit:  Initialize #PEs:          128
ParCommInit:  Initialize #PEs:          128
ParCommInit:  Initialize #PEs:          128
ParCommInit:  Initialize #PEs:          128
ParCommInit:  Initialize #PEs:          128
ParCommInit:  Initialize #PEs:          128
ParCommInit:  Initialize #PEs:          128
ParCommInit:  Initialize #PEs:          128
ParCommInit:  Initialize #PEs:          128
ParCommInit:  Initialize #PEs:          128
ParCommInit:  Initialize #PEs:          128
ParCommInit:  Initialize #PEs:          128
ParCommInit:  Initialize #PEs:          128
ParCommInit:  Initialize #PEs:          128
ParCommInit:  Initialize #PEs:          128
ParCommInit:  Initialize #PEs:          128
ParCommInit:  Initialize #PEs:          128
ParCommInit:  Initialize #PEs:          128
ParCommInit:  Initialize #PEs:          128
ParCommInit:  Initialize #PEs:          128
ParCommInit:  Initialize #PEs:          128
ParCommInit:  Initialize #PEs:          128
ParCommInit:  Initialize #PEs:          128
ParCommInit:  Initialize #PEs:          128
ParCommInit:  Initialize #PEs:          128
ParCommInit:  Initialize #PEs:          128
ParCommInit:  Initialize #PEs:          128
ParCommInit:  Initialize #PEs:          128
ParCommInit:  Initialize #PEs:          128
ParCommInit:  Initialize #PEs:          128
ParCommInit:  Initialize #PEs:          128
ParCommInit:  Initialize #PEs:          128
ParCommInit:  Initialize #PEs:          128
ParCommInit:  Initialize #PEs:          128
ParCommInit:  Initialize #PEs:          128
ParCommInit:  Initialize #PEs:          128
ParCommInit:  Initialize #PEs:          128
ParCommInit:  Initialize #PEs:          128
ParCommInit:  Initialize #PEs:          128
ParCommInit:  Initialize #PEs:          128
ParCommInit:  Initialize #PEs:          128
ParCommInit:  Initialize #PEs:          128
ParCommInit:  Initialize #PEs:          128
ParCommInit:  Initialize #PEs:          128
ParCommInit:  Initialize #PEs:          128
ParCommInit:  Initialize #PEs:          128
ParCommInit:  Initialize #PEs:          128
ParCommInit:  Initialize #PEs:          128
ParCommInit:  Initialize #PEs:          128
ParCommInit:  Initialize #PEs:          128
ParCommInit:  Initialize #PEs:          128
ParCommInit:  Initialize #PEs:          128
ParCommInit:  Initialize #PEs:          128
ParCommInit:  Initialize #PEs:          128
ParCommInit:  Initialize #PEs:          128
ParCommInit:  Initialize #PEs:          128
ParCommInit:  Initialize #PEs:          128
ParCommInit:  Initialize #PEs:          128
ParCommInit:  Initialize #PEs:          128
ParCommInit:  Initialize #PEs:          128
ParCommInit:  Initialize #PEs:          128
ParCommInit:  Initialize #PEs:          128
MAIN: 
MAIN: =============================================================
MAIN: ElmerSolver finite element software, Welcome!
MAIN: This program is free software licensed under (L)GPL
MAIN: Copyright 1st April 1995 - , CSC - IT Center for Science Ltd.
MAIN: Webpage http://www.csc.fi/elmer, Email elmeradm@csc.fi
MAIN: Version: 9.0 (Rev: a114c28, Compiled: 2021-04-03)
MAIN:  Running in parallel using 128 tasks.
MAIN:  Running with just one thread per task.
MAIN:  HYPRE library linked in.
MAIN:  MUMPS library linked in.
MAIN:  Lua interpreted linked in.
MAIN:  Zoltan library linked in.
MAIN: =============================================================
LoadInputFile: Trying to read "Run Control" section only
MAIN: 
MAIN: 
MAIN: -------------------------------------
MAIN: Reading Model: Simple2SR.sif
LoadInputFile: Scanning input file: Simple2SR.sif
LoadInputFile: Scanning only size info
LoadInputFile: First time visiting
LoadInputFile: Reading base load of sif file
LoadInputFile: Loading input file: Simple2SR.sif
LoadInputFile: Reading base load of sif file
CheckKeyword:  Unlisted keyword: [rhoo] in section: [constants]
CheckKeyword:  Unlisted keyword: [rhoi] in section: [constants]
CheckKeyword:  Unlisted keyword: [fs lower] in section: [initial condition 1]
CheckKeyword:  Unlisted keyword: [fs upper] in section: [initial condition 1]
CheckKeyword:  Unlisted keyword: [dvu_ext] in section: [initial condition 1]
CheckKeyword:  Unlisted keyword: [cauchy] in section: [material 1]
CheckKeyword:  Unlisted keyword: [limit temperature] in section: [material 1]
CheckKeyword:  Unlisted keyword: [sea level] in section: [material 1]
CheckKeyword:  Unlisted keyword: [min fs upper] in section: [material 3]
CheckKeyword:  Unlisted keyword: [top surface variable name] in section: [solver 2]
CheckKeyword:  Unlisted keyword: [bottom surface variable name] in section: [solver 2]
CheckKeyword:  Unlisted keyword: [correct surface] in section: [solver 2]
CheckKeyword:  Unlisted keyword: [minimum height] in section: [solver 2]
CheckKeyword:  Unlisted keyword: [minimum height] in section: [solver 3]
CheckKeyword:  Unlisted keyword: [top surface variable name] in section: [solver 3]
CheckKeyword:  Unlisted keyword: [bottom surface variable name] in section: [solver 3]
CheckKeyword:  Unlisted keyword: [correct surface] in section: [solver 3]
CheckKeyword:  Unlisted keyword: [toler] in section: [solver 5]
CheckKeyword:  Unlisted keyword: [bedrock variable] in section: [solver 5]
CheckKeyword:  Unlisted keyword: [computeall] in section: [solver 6]
CheckKeyword:  Unlisted keyword: [nonlinear system abort not converged] in section: [solver 8]
CheckKeyword:  Unlisted keyword: [flow solver name] in section: [solver 9]
CheckKeyword:  Unlisted keyword: [stress variable name] in section: [solver 9]
Loading user function library: [ElmerIceUSF]...[SeaPressure]
CheckKeyword:  Unlisted keyword: [compute sea pressure] in section: [boundary condition 2]
CheckKeyword:  Unlisted keyword: [test contact tolerance] in section: [boundary condition 3]
CheckKeyword:  Unlisted keyword: [height] in section: [boundary condition 3]
CheckKeyword:  Unlisted keyword: [fs lower] in section: [boundary condition 3]
Loading user function library: [ElmerIceUSF]...[SeaSpring]
CheckKeyword:  Unlisted keyword: [compute sea spring] in section: [boundary condition 3]
CheckKeyword:  Unlisted keyword: [depth] in section: [boundary condition 4]
CheckKeyword:  Unlisted keyword: [fs upper] in section: [boundary condition 4]
LoadInputFile: Number of BCs: 4
LoadInputFile: Number of Body Forces: 1
LoadInputFile: Number of Initial Conditions: 1
LoadInputFile: Number of Materials: 3
LoadInputFile: Number of Equations: 3
LoadInputFile: Number of Solvers: 12
LoadInputFile: Number of Bodies: 3
Loading user function library: [DummySolver]...[DummySolver_Init0]
Loading user function library: [StructuredMeshMapper]...[StructuredMeshMapper_Init0]
Loading user function library: [StructuredMeshMapper]...[StructuredMeshMapper_Init0]
Loading user function library: [StructuredProjectToPlane]...[StructuredProjectToPlane_Init0]
Loading user function library: [ElmerIceSolvers]...[GroundedSolver_Init0]
Loading user function library: [ElmerIceSolvers]...[ComputeNormalSolver_Init0]
Loading user function library: [ElmerIceSolvers]...[GetHydrostaticLoads_Init0]
Loading user function library: [ElmerIceSolvers]...[ComputeDevStress_Init0]
Loading user function library: [FreeSurfaceSolver]...[FreeSurfaceSolver_Init0]
Loading user function library: [FreeSurfaceSolver]...[FreeSurfaceSolver_Init0]
Loading user function library: [ResultOutputSolve]...[ResultOutputSolver_Init0]
LoadMesh: Starting
ElmerAsciiMesh: Performing step: 1
ElmerAsciiMesh: Base mesh name: ./../mesh2D_TG_refpart/
InitializeMesh: Number of nodes in mesh: 365
InitializeMesh: Number of bulk elements in mesh: 649
InitializeMesh: Number of boundary elements in mesh: 16
ElmerAsciiMesh: Performing step: 2
SetMeshDimension: Dimension of mesh is: 2
SetMeshDimension: Max dimension of mesh is: 2
ElmerAsciiMesh: Performing step: 3
ElmerAsciiMesh: Performing step: 4
PermuteNodeNumbering: Performing node mapping
MapBodiesAndBCs: Remapping boundaries
MapBodiesAndBCs: Minimum initial boundary index: 2
MapBodiesAndBCs: Maximum initial boundary index: 2
ElmerAsciiMesh: Performing step: 5
ElmerAsciiMesh: Performing step: 6
LoadMesh: Loading mesh done
LoadMesh: Elapsed REAL time:     0.0701 (s)
MeshStabParams: Computing stabilization parameters
MeshStabParams: Elapsed REAL time:     0.0003 (s)
UnitSegmentDivision: Creating functional division
UnitSegmentDivision: Convergence obtained in 135 iterations
UnitSegmentDivision: Mesh division ready
UnitSegmentDivision: w(0) :   0.0000E+00
UnitSegmentDivision: w(1) :   3.7444E-02
UnitSegmentDivision: w(2) :   7.8392E-02
UnitSegmentDivision: w(3) :   1.2317E-01
UnitSegmentDivision: w(4) :   1.7215E-01
UnitSegmentDivision: w(5) :   2.2571E-01
UnitSegmentDivision: w(6) :   2.8428E-01
UnitSegmentDivision: w(7) :   3.4833E-01
UnitSegmentDivision: w(8) :   4.1838E-01
UnitSegmentDivision: w(9) :   4.9499E-01
UnitSegmentDivision: w(10) :   5.7877E-01
UnitSegmentDivision: w(11) :   6.7039E-01
UnitSegmentDivision: w(12) :   7.7059E-01
UnitSegmentDivision: w(13) :   8.8017E-01
UnitSegmentDivision: w(14) :   1.0000E+00
MeshExtrude: First Extruded BC set to: 3
MeshExtrude: Number of new BCs for layers: 1
SetMeshDimension: Dimension of mesh is: 3
SetMeshDimension: Max dimension of mesh is: 3
NonNodalElements: Requested elements require creation of edges
FindMeshEdges: Determining faces in 3D mesh
FindMeshEdges: Determining edges in 3D mesh
MAIN: -------------------------------------
AddEquationBasics: Setting up solver: dummyroutine
Loading user function library: [DummySolver]...[DummySolver_Init]
Loading user function library: [DummySolver]...[DummySolver_bulk]
Loading user function library: [DummySolver]...[DummySolver]
WARNING:: AddEquationBasics: > Timestepping method < defaulted to > Implicit Euler <
WARNING:: AddEquationBasics: > Timestepping method < defaulted to > Implicit Euler <
WARNING:: AddEquationBasics: > Timestepping method < defaulted to > Implicit Euler <
WARNING:: AddEquationBasics: > Timestepping method < defaulted to > Implicit Euler <
WARNING:: AddEquationBasics: > Timestepping method < defaulted to > Implicit Euler <
WARNING:: AddEquationBasics: > Timestepping method < defaulted to > Implicit Euler <
WARNING:: AddEquationBasics: > Timestepping method < defaulted to > Implicit Euler <
WARNING:: AddEquationBasics: > Timestepping method < defaulted to > Implicit Euler <
WARNING:: AddEquationBasics: > Timestepping method < defaulted to > Implicit Euler <
WARNING:: AddEquationBasics: > Timestepping method < defaulted to > Implicit Euler <
WARNING:: AddEquationBasics: > Timestepping method < defaulted to > Implicit Euler <
WARNING:: AddEquationBasics: > Timestepping method < defaulted to > Implicit Euler <
WARNING:: AddEquationBasics: > Timestepping method < defaulted to > Implicit Euler <
WARNING:: AddEquationBasics: > Timestepping method < defaulted to > Implicit Euler <
WARNING:: AddEquationBasics: > Timestepping method < defaulted to > Implicit Euler <
WARNING:: AddEquationBasics: > Timestepping method < defaulted to > Implicit Euler <
WARNING:: AddEquationBasics: > Timestepping method < defaulted to > Implicit Euler <
WARNING:: AddEquationBasics: > Timestepping method < defaulted to > Implicit Euler <
WARNING:: AddEquationBasics: > Timestepping method < defaulted to > Implicit Euler <
WARNING:: AddEquationBasics: > Timestepping method < defaulted to > Implicit Euler <
WARNING:: AddEquationBasics: > Timestepping method < defaulted to > Implicit Euler <
WARNING:: AddEquationBasics: > Timestepping method < defaulted to > Implicit Euler <
WARNING:: AddEquationBasics: > Timestepping method < defaulted to > Implicit Euler <
WARNING:: AddEquationBasics: > Timestepping method < defaulted to > Implicit Euler <
WARNING:: AddEquationBasics: > Timestepping method < defaulted to > Implicit Euler <
WARNING:: AddEquationBasics: > Timestepping method < defaulted to > Implicit Euler <
WARNING:: AddEquationBasics: > Timestepping method < defaulted to > Implicit Euler <
WARNING:: AddEquationBasics: > Timestepping method < defaulted to > Implicit Euler <
WARNING:: AddEquationBasics: > Timestepping method < defaulted to > Implicit Euler <
WARNING:: AddEquationBasics: > Timestepping method < defaulted to > Implicit Euler <
AddEquationBasics: Creating standard variable: dummyv
WARNING:: AddEquationBasics: > Timestepping method < defaulted to > Implicit Euler <
WARNING:: AddEquationBasics: > Timestepping method < defaulted to > Implicit Euler <
WARNING:: AddEquationBasics: > Timestepping method < defaulted to > Implicit Euler <
WARNING:: AddEquationBasics: > Timestepping method < defaulted to > Implicit Euler <
WARNING:: AddEquationBasics: > Timestepping method < defaulted to > Implicit Euler <
WARNING:: AddEquationBasics: > Timestepping method < defaulted to > Implicit Euler <
WARNING:: AddEquationBasics: > Timestepping method < defaulted to > Implicit Euler <
WARNING:: AddEquationBasics: > Timestepping method < defaulted to > Implicit Euler <
WARNING:: AddEquationBasics: > Timestepping method < defaulted to > Implicit Euler <
WARNING:: AddEquationBasics: > Timestepping method < defaulted to > Implicit Euler <
WARNING:: AddEquationBasics: > Timestepping method < defaulted to > Implicit Euler <
WARNING:: AddEquationBasics: > Timestepping method < defaulted to > Implicit Euler <
WARNING:: AddEquationBasics: > Timestepping method < defaulted to > Implicit Euler <
WARNING:: AddEquationBasics: > Timestepping method < defaulted to > Implicit Euler <
WARNING:: AddEquationBasics: > Timestepping method < defaulted to > Implicit Euler <
WARNING:: AddEquationBasics: > Timestepping method < defaulted to > Implicit Euler <
WARNING:: AddEquationBasics: > Timestepping method < defaulted to > Implicit Euler <
WARNING:: AddEquationBasics: > Timestepping method < defaulted to > Implicit Euler <
WARNING:: AddEquationBasics: > Timestepping method < defaulted to > Implicit Euler <
WARNING:: AddEquationBasics: > Timestepping method < defaulted to > Implicit Euler <
WARNING:: AddEquationBasics: > Timestepping method < defaulted to > Implicit Euler <
WARNING:: AddEquationBasics: > Timestepping method < defaulted to > Implicit Euler <
WARNING:: AddEquationBasics: > Timestepping method < defaulted to > Implicit Euler <
WARNING:: AddEquationBasics: > Timestepping method < defaulted to > Implicit Euler <
WARNING:: AddEquationBasics: > Timestepping method < defaulted to > Implicit Euler <
WARNING:: AddEquationBasics: > Timestepping method < defaulted to > Implicit Euler <
WARNING:: AddEquationBasics: > Timestepping method < defaulted to > Implicit Euler <
WARNING:: AddEquationBasics: > Timestepping method < defaulted to > Implicit Euler <
WARNING:: AddEquationBasics: > Timestepping method < defaulted to > Implicit Euler <
WARNING:: AddEquationBasics: > Timestepping method < defaulted to > Implicit Euler <
WARNING:: AddEquationBasics: > Timestepping method < defaulted to > Implicit Euler <
WARNING:: AddEquationBasics: > Timestepping method < defaulted to > Implicit Euler <
WARNING:: AddEquationBasics: > Timestepping method < defaulted to > Implicit Euler <
WARNING:: AddEquationBasics: > Timestepping method < defaulted to > Implicit Euler <
WARNING:: AddEquationBasics: > Timestepping method < defaulted to > Implicit Euler <
WARNING:: AddEquationBasics: > Timestepping method < defaulted to > Implicit Euler <
WARNING:: AddEquationBasics: > Timestepping method < defaulted to > Implicit Euler <
WARNING:: AddEquationBasics: > Timestepping method < defaulted to > Implicit Euler <
WARNING:: AddEquationBasics: > Timestepping method < defaulted to > Implicit Euler <
WARNING:: AddEquationBasics: > Timestepping method < defaulted to > Implicit Euler <
WARNING:: AddEquationBasics: > Timestepping method < defaulted to > Implicit Euler <
WARNING:: AddEquationBasics: > Timestepping method < defaulted to > Implicit Euler <
WARNING:: AddEquationBasics: > Timestepping method < defaulted to > Implicit Euler <
WARNING:: AddEquationBasics: > Timestepping method < defaulted to > Implicit Euler <
WARNING:: AddEquationBasics: > Timestepping method < defaulted to > Implicit Euler <
WARNING:: AddEquationBasics: > Timestepping method < defaulted to > Implicit Euler <
WARNING:: AddEquationBasics: > Timestepping method < defaulted to > Implicit Euler <
WARNING:: AddEquationBasics: > Timestepping method < defaulted to > Implicit Euler <
WARNING:: AddEquationBasics: > Timestepping method < defaulted to > Implicit Euler <
WARNING:: AddEquationBasics: > Timestepping method < defaulted to > Implicit Euler <
WARNING:: AddEquationBasics: > Timestepping method < defaulted to > Implicit Euler <
WARNING:: AddEquationBasics: > Timestepping method < defaulted to > Implicit Euler <
WARNING:: AddEquationBasics: > Timestepping method < defaulted to > Implicit Euler <
WARNING:: AddEquationBasics: > Timestepping method < defaulted to > Implicit Euler <
WARNING:: AddEquationBasics: > Timestepping method < defaulted to > Implicit Euler <
WARNING:: AddEquationBasics: > Timestepping method < defaulted to > Implicit Euler <
WARNING:: AddEquationBasics: > Timestepping method < defaulted to > Implicit Euler <
WARNING:: AddEquationBasics: > Timestepping method < defaulted to > Implicit Euler <
WARNING:: AddEquationBasics: > Timestepping method < defaulted to > Implicit Euler <
WARNING:: AddEquationBasics: > Timestepping method < defaulted to > Implicit Euler <
WARNING:: AddEquationBasics: > Timestepping method < defaulted to > Implicit Euler <
WARNING:: AddEquationBasics: > Timestepping method < defaulted to > Implicit Euler <
WARNING:: AddEquationBasics: > Timestepping method < defaulted to > Implicit Euler <
WARNING:: AddEquationBasics: > Timestepping method < defaulted to > Implicit Euler <
WARNING:: AddEquationBasics: > Timestepping method < defaulted to > Implicit Euler <
WARNING:: AddEquationBasics: > Timestepping method < defaulted to > Implicit Euler <
WARNING:: AddEquationBasics: > Timestepping method < defaulted to > Implicit Euler <
WARNING:: AddEquationBasics: > Timestepping method < defaulted to > Implicit Euler <
WARNING:: AddEquationBasics: > Timestepping method < defaulted to > Implicit Euler <
WARNING:: AddEquationBasics: > Timestepping method < defaulted to > Implicit Euler <
WARNING:: AddEquationBasics: > Timestepping method < defaulted to > Implicit Euler <
WARNING:: AddEquationBasics: > Timestepping method < defaulted to > Implicit Euler <
WARNING:: AddEquationBasics: > Timestepping method < defaulted to > Implicit Euler <
WARNING:: AddEquationBasics: > Timestepping method < defaulted to > Implicit Euler <
WARNING:: AddEquationBasics: > Timestepping method < defaulted to > Implicit Euler <
WARNING:: AddEquationBasics: > Timestepping method < defaulted to > Implicit Euler <
WARNING:: AddEquationBasics: > Timestepping method < defaulted to > Implicit Euler <
WARNING:: AddEquationBasics: > Timestepping method < defaulted to > Implicit Euler <
WARNING:: AddEquationBasics: > Timestepping method < defaulted to > Implicit Euler <
WARNING:: AddEquationBasics: > Timestepping method < defaulted to > Implicit Euler <
WARNING:: AddEquationBasics: > Timestepping method < defaulted to > Implicit Euler <
WARNING:: AddEquationBasics: > Timestepping method < defaulted to > Implicit Euler <
WARNING:: AddEquationBasics: > Timestepping method < defaulted to > Implicit Euler <
WARNING:: AddEquationBasics: > Timestepping method < defaulted to > Implicit Euler <
WARNING:: AddEquationBasics: > Timestepping method < defaulted to > Implicit Euler <
WARNING:: AddEquationBasics: > Timestepping method < defaulted to > Implicit Euler <
WARNING:: AddEquationBasics: > Timestepping method < defaulted to > Implicit Euler <
WARNING:: AddEquationBasics: > Timestepping method < defaulted to > Implicit Euler <
WARNING:: AddEquationBasics: > Timestepping method < defaulted to > Implicit Euler <
WARNING:: AddEquationBasics: > Timestepping method < defaulted to > Implicit Euler <
WARNING:: AddEquationBasics: > Timestepping method < defaulted to > Implicit Euler <
WARNING:: AddEquationBasics: > Timestepping method < defaulted to > Implicit Euler <
WARNING:: AddEquationBasics: > Timestepping method < defaulted to > Implicit Euler <
WARNING:: AddEquationBasics: > Timestepping method < defaulted to > Implicit Euler <
WARNING:: AddEquationBasics: > Timestepping method < defaulted to > Implicit Euler <
WARNING:: AddEquationBasics: > Timestepping method < defaulted to > Implicit Euler <
WARNING:: AddEquationBasics: > Timestepping method < defaulted to > Implicit Euler <
WARNING:: AddEquationBasics: > Timestepping method < defaulted to > Implicit Euler <
OptimizeBandwidth: ---------------------------------------------------------
OptimizeBandwidth: Computing matrix structure for: dummyroutine...done.
OptimizeBandwidth: Half bandwidth without optimization: 719
OptimizeBandwidth: 
OptimizeBandwidth: Bandwidth Optimization ...done.
OptimizeBandwidth: Half bandwidth after optimization: 667
OptimizeBandwidth: ---------------------------------------------------------
AddEquationBasics: Setting up solver: mapcoordinate_init
Loading user function library: [StructuredMeshMapper]...[StructuredMeshMapper_Init]
Loading user function library: [StructuredMeshMapper]...[StructuredMeshMapper_bulk]
Loading user function library: [StructuredMeshMapper]...[StructuredMeshMapper]
WARNING:: AddEquationBasics: > Timestepping method < defaulted to > Implicit Euler <
WARNING:: AddEquationBasics: > Timestepping method < defaulted to > Implicit Euler <
WARNING:: AddEquationBasics: > Timestepping method < defaulted to > Implicit Euler <
WARNING:: AddEquationBasics: > Timestepping method < defaulted to > Implicit Euler <
WARNING:: AddEquationBasics: > Timestepping method < defaulted to > Implicit Euler <
WARNING:: AddEquationBasics: > Timestepping method < defaulted to > Implicit Euler <
WARNING:: AddEquationBasics: > Timestepping method < defaulted to > Implicit Euler <
WARNING:: AddEquationBasics: > Timestepping method < defaulted to > Implicit Euler <
WARNING:: AddEquationBasics: > Timestepping method < defaulted to > Implicit Euler <
WARNING:: AddEquationBasics: > Timestepping method < defaulted to > Implicit Euler <
WARNING:: AddEquationBasics: > Timestepping method < defaulted to > Implicit Euler <
WARNING:: AddEquationBasics: > Timestepping method < defaulted to > Implicit Euler <
WARNING:: AddEquationBasics: > Timestepping method < defaulted to > Implicit Euler <
WARNING:: AddEquationBasics: > Timestepping method < defaulted to > Implicit Euler <
WARNING:: AddEquationBasics: > Timestepping method < defaulted to > Implicit Euler <
WARNING:: AddEquationBasics: > Timestepping method < defaulted to > Implicit Euler <
WARNING:: AddEquationBasics: > Timestepping method < defaulted to > Implicit Euler <
WARNING:: AddEquationBasics: > Timestepping method < defaulted to > Implicit Euler <
WARNING:: AddEquationBasics: > Timestepping method < defaulted to > Implicit Euler <
WARNING:: AddEquationBasics: > Timestepping method < defaulted to > Implicit Euler <
WARNING:: AddEquationBasics: > Timestepping method < defaulted to > Implicit Euler <
WARNING:: AddEquationBasics: > Timestepping method < defaulted to > Implicit Euler <
WARNING:: AddEquationBasics: > Timestepping method < defaulted to > Implicit Euler <
WARNING:: AddEquationBasics: > Timestepping method < defaulted to > Implicit Euler <
WARNING:: AddEquationBasics: > Timestepping method < defaulted to > Implicit Euler <
WARNING:: AddEquationBasics: > Timestepping method < defaulted to > Implicit Euler <
WARNING:: AddEquationBasics: > Timestepping method < defaulted to > Implicit Euler <
WARNING:: AddEquationBasics: > Timestepping method < defaulted to > Implicit Euler <
WARNING:: AddEquationBasics: > Timestepping method < defaulted to > Implicit Euler <
WARNING:: AddEquationBasics: > Timestepping method < defaulted to > Implicit Euler <
WARNING:: AddEquationBasics: > Timestepping method < defaulted to > Implicit Euler <
WARNING:: AddEquationBasics: > Timestepping method < defaulted to > Implicit Euler <
WARNING:: AddEquationBasics: > Timestepping method < defaulted to > Implicit Euler <
WARNING:: AddEquationBasics: > Timestepping method < defaulted to > Implicit Euler <
WARNING:: AddEquationBasics: > Timestepping method < defaulted to > Implicit Euler <
WARNING:: AddEquationBasics: > Timestepping method < defaulted to > Implicit Euler <
AddEquationBasics: Setting up solver: mapcoordinate
Loading user function library: [StructuredMeshMapper]...[StructuredMeshMapper_Init]
WARNING:: AddEquationBasics: > Timestepping method < defaulted to > Implicit Euler <
WARNING:: AddEquationBasics: > Timestepping method < defaulted to > Implicit Euler <
WARNING:: AddEquationBasics: > Timestepping method < defaulted to > Implicit Euler <
WARNING:: AddEquationBasics: > Timestepping method < defaulted to > Implicit Euler <
WARNING:: AddEquationBasics: > Timestepping method < defaulted to > Implicit Euler <
WARNING:: AddEquationBasics: > Timestepping method < defaulted to > Implicit Euler <
WARNING:: AddEquationBasics: > Timestepping method < defaulted to > Implicit Euler <
WARNING:: AddEquationBasics: > Timestepping method < defaulted to > Implicit Euler <
WARNING:: AddEquationBasics: > Timestepping method < defaulted to > Implicit Euler <
WARNING:: AddEquationBasics: > Timestepping method < defaulted to > Implicit Euler <
WARNING:: AddEquationBasics: > Timestepping method < defaulted to > Implicit Euler <
WARNING:: AddEquationBasics: > Timestepping method < defaulted to > Implicit Euler <
WARNING:: AddEquationBasics: > Timestepping method < defaulted to > Implicit Euler <
WARNING:: AddEquationBasics: > Timestepping method < defaulted to > Implicit Euler <
WARNING:: AddEquationBasics: > Timestepping method < defaulted to > Implicit Euler <
WARNING:: AddEquationBasics: > Timestepping method < defaulted to > Implicit Euler <
WARNING:: AddEquationBasics: > Timestepping method < defaulted to > Implicit Euler <
WARNING:: AddEquationBasics: > Timestepping method < defaulted to > Implicit Euler <
WARNING:: AddEquationBasics: > Timestepping method < defaulted to > Implicit Euler <
WARNING:: AddEquationBasics: > Timestepping method < defaulted to > Implicit Euler <
WARNING:: AddEquationBasics: > Timestepping method < defaulted to > Implicit Euler <
WARNING:: AddEquationBasics: > Timestepping method < defaulted to > Implicit Euler <
WARNING:: AddEquationBasics: > Timestepping method < defaulted to > Implicit Euler <
WARNING:: AddEquationBasics: > Timestepping method < defaulted to > Implicit Euler <
WARNING:: AddEquationBasics: > Timestepping method < defaulted to > Implicit Euler <
WARNING:: AddEquationBasics: > Timestepping method < defaulted to > Implicit Euler <
WARNING:: AddEquationBasics: > Timestepping method < defaulted to > Implicit Euler <
WARNING:: AddEquationBasics: > Timestepping method < defaulted to > Implicit Euler <
WARNING:: AddEquationBasics: > Timestepping method < defaulted to > Implicit Euler <
WARNING:: AddEquationBasics: > Timestepping method < defaulted to > Implicit Euler <
WARNING:: AddEquationBasics: > Timestepping method < defaulted to > Implicit Euler <
WARNING:: AddEquationBasics: > Timestepping method < defaulted to > Implicit Euler <
WARNING:: AddEquationBasics: > Timestepping method < defaulted to > Implicit Euler <
WARNING:: AddEquationBasics: > Timestepping method < defaulted to > Implicit Euler <
WARNING:: AddEquationBasics: > Timestepping method < defaulted to > Implicit Euler <
WARNING:: AddEquationBasics: > Timestepping method < defaulted to > Implicit Euler <
WARNING:: AddEquationBasics: > Timestepping method < defaulted to > Implicit Euler <
WARNING:: AddEquationBasics: > Timestepping method < defaulted to > Implicit Euler <
WARNING:: AddEquationBasics: > Timestepping method < defaulted to > Implicit Euler <
WARNING:: AddEquationBasics: > Timestepping method < defaulted to > Implicit Euler <
WARNING:: AddEquationBasics: > Timestepping method < defaulted to > Implicit Euler <
WARNING:: AddEquationBasics: > Timestepping method < defaulted to > Implicit Euler <
WARNING:: AddEquationBasics: > Timestepping method < defaulted to > Implicit Euler <
WARNING:: AddEquationBasics: > Timestepping method < defaulted to > Implicit Euler <
WARNING:: AddEquationBasics: > Timestepping method < defaulted to > Implicit Euler <
WARNING:: AddEquationBasics: > Timestepping method < defaulted to > Implicit Euler <
WARNING:: AddEquationBasics: > Timestepping method < defaulted to > Implicit Euler <
WARNING:: AddEquationBasics: > Timestepping method < defaulted to > Implicit Euler <
WARNING:: AddEquationBasics: > Timestepping method < defaulted to > Implicit Euler <
WARNING:: AddEquationBasics: > Timestepping method < defaulted to > Implicit Euler <
WARNING:: AddEquationBasics: > Timestepping method < defaulted to > Implicit Euler <
WARNING:: AddEquationBasics: > Timestepping method < defaulted to > Implicit Euler <
WARNING:: AddEquationBasics: > Timestepping method < defaulted to > Implicit Euler <
WARNING:: AddEquationBasics: > Timestepping method < defaulted to > Implicit Euler <
WARNING:: AddEquationBasics: > Timestepping method < defaulted to > Implicit Euler <
WARNING:: AddEquationBasics: > Timestepping method < defaulted to > Implicit Euler <
WARNING:: AddEquationBasics: > Timestepping method < defaulted to > Implicit Euler <
WARNING:: AddEquationBasics: > Timestepping method < defaulted to > Implicit Euler <
WARNING:: AddEquationBasics: > Timestepping method < defaulted to > Implicit Euler <
WARNING:: AddEquationBasics: > Timestepping method < defaulted to > Implicit Euler <
WARNING:: AddEquationBasics: > Timestepping method < defaulted to > Implicit Euler <
WARNING:: AddEquationBasics: > Timestepping method < defaulted to > Implicit Euler <
WARNING:: AddEquationBasics: > Timestepping method < defaulted to > Implicit Euler <
WARNING:: AddEquationBasics: > Timestepping method < defaulted to > Implicit Euler <
WARNING:: AddEquationBasics: > Timestepping method < defaulted to > Implicit Euler <
WARNING:: AddEquationBasics: > Timestepping method < defaulted to > Implicit Euler <
WARNING:: AddEquationBasics: > Timestepping method < defaulted to > Implicit Euler <
WARNING:: AddEquationBasics: > Timestepping method < defaulted to > Implicit Euler <
WARNING:: AddEquationBasics: > Timestepping method < defaulted to > Implicit Euler <
WARNING:: AddEquationBasics: > Timestepping method < defaulted to > Implicit Euler <
WARNING:: AddEquationBasics: > Timestepping method < defaulted to > Implicit Euler <
WARNING:: AddEquationBasics: > Timestepping method < defaulted to > Implicit Euler <
WARNING:: AddEquationBasics: > Timestepping method < defaulted to > Implicit Euler <
WARNING:: AddEquationBasics: > Timestepping method < defaulted to > Implicit Euler <
WARNING:: AddEquationBasics: > Timestepping method < defaulted to > Implicit Euler <
WARNING:: AddEquationBasics: > Timestepping method < defaulted to > Implicit Euler <
WARNING:: AddEquationBasics: > Timestepping method < defaulted to > Implicit Euler <
WARNING:: AddEquationBasics: > Timestepping method < defaulted to > Implicit Euler <
WARNING:: AddEquationBasics: > Timestepping method < defaulted to > Implicit Euler <
WARNING:: AddEquationBasics: > Timestepping method < defaulted to > Implicit Euler <
WARNING:: AddEquationBasics: > Timestepping method < defaulted to > Implicit Euler <
WARNING:: AddEquationBasics: > Timestepping method < defaulted to > Implicit Euler <
WARNING:: AddEquationBasics: > Timestepping method < defaulted to > Implicit Euler <
WARNING:: AddEquationBasics: > Timestepping method < defaulted to > Implicit Euler <
WARNING:: AddEquationBasics: > Timestepping method < defaulted to > Implicit Euler <
WARNING:: AddEquationBasics: > Timestepping method < defaulted to > Implicit Euler <
WARNING:: AddEquationBasics: > Timestepping method < defaulted to > Implicit Euler <
WARNING:: AddEquationBasics: > Timestepping method < defaulted to > Implicit Euler <
WARNING:: AddEquationBasics: > Timestepping method < defaulted to > Implicit Euler <
WARNING:: AddEquationBasics: > Timestepping method < defaulted to > Implicit Euler <
WARNING:: AddEquationBasics: > Timestepping method < defaulted to > Implicit Euler <
WARNING:: AddEquationBasics: > Timestepping method < defaulted to > Implicit Euler <
Loading user function library: [StructuredMeshMapper]...[StructuredMeshMapper_bulk]
Loading user function library: [StructuredMeshMapper]...[StructuredMeshMapper]
WARNING:: AddEquationBasics: > Timestepping method < defaulted to > Implicit Euler <
WARNING:: AddEquationBasics: > Timestepping method < defaulted to > Implicit Euler <
WARNING:: AddEquationBasics: > Timestepping method < defaulted to > Implicit Euler <
WARNING:: AddEquationBasics: > Timestepping method < defaulted to > Implicit Euler <
WARNING:: AddEquationBasics: > Timestepping method < defaulted to > Implicit Euler <
WARNING:: AddEquationBasics: > Timestepping method < defaulted to > Implicit Euler <
WARNING:: AddEquationBasics: > Timestepping method < defaulted to > Implicit Euler <
WARNING:: AddEquationBasics: > Timestepping method < defaulted to > Implicit Euler <
WARNING:: AddEquationBasics: > Timestepping method < defaulted to > Implicit Euler <
WARNING:: AddEquationBasics: > Timestepping method < defaulted to > Implicit Euler <
WARNING:: AddEquationBasics: > Timestepping method < defaulted to > Implicit Euler <
WARNING:: AddEquationBasics: > Timestepping method < defaulted to > Implicit Euler <
WARNING:: AddEquationBasics: > Timestepping method < defaulted to > Implicit Euler <
WARNING:: AddEquationBasics: > Timestepping method < defaulted to > Implicit Euler <
WARNING:: AddEquationBasics: > Timestepping method < defaulted to > Implicit Euler <
WARNING:: AddEquationBasics: > Timestepping method < defaulted to > Implicit Euler <
WARNING:: AddEquationBasics: > Timestepping method < defaulted to > Implicit Euler <
WARNING:: AddEquationBasics: > Timestepping method < defaulted to > Implicit Euler <
WARNING:: AddEquationBasics: > Timestepping method < defaulted to > Implicit Euler <
WARNING:: AddEquationBasics: > Timestepping method < defaulted to > Implicit Euler <
WARNING:: AddEquationBasics: > Timestepping method < defaulted to > Implicit Euler <
WARNING:: AddEquationBasics: > Timestepping method < defaulted to > Implicit Euler <
WARNING:: AddEquationBasics: > Timestepping method < defaulted to > Implicit Euler <
WARNING:: AddEquationBasics: > Timestepping method < defaulted to > Implicit Euler <
WARNING:: AddEquationBasics: > Timestepping method < defaulted to > Implicit Euler <
WARNING:: AddEquationBasics: > Timestepping method < defaulted to > Implicit Euler <
WARNING:: AddEquationBasics: > Timestepping method < defaulted to > Implicit Euler <
WARNING:: AddEquationBasics: > Timestepping method < defaulted to > Implicit Euler <
WARNING:: AddEquationBasics: > Timestepping method < defaulted to > Implicit Euler <
WARNING:: AddEquationBasics: > Timestepping method < defaulted to > Implicit Euler <
WARNING:: AddEquationBasics: > Timestepping method < defaulted to > Implicit Euler <
WARNING:: AddEquationBasics: > Timestepping method < defaulted to > Implicit Euler <
WARNING:: AddEquationBasics: > Timestepping method < defaulted to > Implicit Euler <
WARNING:: AddEquationBasics: > Timestepping method < defaulted to > Implicit Euler <
WARNING:: AddEquationBasics: > Timestepping method < defaulted to > Implicit Euler <
WARNING:: AddEquationBasics: > Timestepping method < defaulted to > Implicit Euler <
WARNING:: AddEquationBasics: > Timestepping method < defaulted to > Implicit Euler <
WARNING:: AddEquationBasics: > Timestepping method < defaulted to > Implicit Euler <
WARNING:: AddEquationBasics: > Timestepping method < defaulted to > Implicit Euler <
WARNING:: AddEquationBasics: > Timestepping method < defaulted to > Implicit Euler <
WARNING:: AddEquationBasics: > Timestepping method < defaulted to > Implicit Euler <
WARNING:: AddEquationBasics: > Timestepping method < defaulted to > Implicit Euler <
WARNING:: AddEquationBasics: > Timestepping method < defaulted to > Implicit Euler <
WARNING:: AddEquationBasics: > Timestepping method < defaulted to > Implicit Euler <
WARNING:: AddEquationBasics: > Timestepping method < defaulted to > Implicit Euler <
WARNING:: AddEquationBasics: > Timestepping method < defaulted to > Implicit Euler <
WARNING:: AddEquationBasics: > Timestepping method < defaulted to > Implicit Euler <
WARNING:: AddEquationBasics: > Timestepping method < defaulted to > Implicit Euler <
WARNING:: AddEquationBasics: > Timestepping method < defaulted to > Implicit Euler <
WARNING:: AddEquationBasics: > Timestepping method < defaulted to > Implicit Euler <
WARNING:: AddEquationBasics: > Timestepping method < defaulted to > Implicit Euler <
WARNING:: AddEquationBasics: > Timestepping method < defaulted to > Implicit Euler <
AddEquationBasics: Setting up solver: heightdepth
WARNING:: AddEquationBasics: > Timestepping method < defaulted to > Implicit Euler <
WARNING:: AddEquationBasics: > Timestepping method < defaulted to > Implicit Euler <
WARNING:: AddEquationBasics: > Timestepping method < defaulted to > Implicit Euler <
WARNING:: AddEquationBasics: > Timestepping method < defaulted to > Implicit Euler <
WARNING:: AddEquationBasics: > Timestepping method < defaulted to > Implicit Euler <
WARNING:: AddEquationBasics: > Timestepping method < defaulted to > Implicit Euler <
WARNING:: AddEquationBasics: > Timestepping method < defaulted to > Implicit Euler <
WARNING:: AddEquationBasics: > Timestepping method < defaulted to > Implicit Euler <
WARNING:: AddEquationBasics: > Timestepping method < defaulted to > Implicit Euler <
WARNING:: AddEquationBasics: > Timestepping method < defaulted to > Implicit Euler <
WARNING:: AddEquationBasics: > Timestepping method < defaulted to > Implicit Euler <
WARNING:: AddEquationBasics: > Timestepping method < defaulted to > Implicit Euler <
WARNING:: AddEquationBasics: > Timestepping method < defaulted to > Implicit Euler <
WARNING:: AddEquationBasics: > Timestepping method < defaulted to > Implicit Euler <
WARNING:: AddEquationBasics: > Timestepping method < defaulted to > Implicit Euler <
WARNING:: AddEquationBasics: > Timestepping method < defaulted to > Implicit Euler <
WARNING:: AddEquationBasics: > Timestepping method < defaulted to > Implicit Euler <
WARNING:: AddEquationBasics: > Timestepping method < defaulted to > Implicit Euler <
WARNING:: AddEquationBasics: > Timestepping method < defaulted to > Implicit Euler <
Loading user function library: [StructuredProjectToPlane]...[StructuredProjectToPlane_Init]
WARNING:: AddEquationBasics: > Timestepping method < defaulted to > Implicit Euler <
WARNING:: AddEquationBasics: > Timestepping method < defaulted to > Implicit Euler <
WARNING:: AddEquationBasics: > Timestepping method < defaulted to > Implicit Euler <
WARNING:: AddEquationBasics: > Timestepping method < defaulted to > Implicit Euler <
WARNING:: AddEquationBasics: > Timestepping method < defaulted to > Implicit Euler <
WARNING:: AddEquationBasics: > Timestepping method < defaulted to > Implicit Euler <
WARNING:: AddEquationBasics: > Timestepping method < defaulted to > Implicit Euler <
WARNING:: AddEquationBasics: > Timestepping method < defaulted to > Implicit Euler <
WARNING:: AddEquationBasics: > Timestepping method < defaulted to > Implicit Euler <
WARNING:: AddEquationBasics: > Timestepping method < defaulted to > Implicit Euler <
WARNING:: AddEquationBasics: > Timestepping method < defaulted to > Implicit Euler <
WARNING:: AddEquationBasics: > Timestepping method < defaulted to > Implicit Euler <
WARNING:: AddEquationBasics: > Timestepping method < defaulted to > Implicit Euler <
WARNING:: AddEquationBasics: > Timestepping method < defaulted to > Implicit Euler <
WARNING:: AddEquationBasics: > Timestepping method < defaulted to > Implicit Euler <
WARNING:: AddEquationBasics: > Timestepping method < defaulted to > Implicit Euler <
WARNING:: AddEquationBasics: > Timestepping method < defaulted to > Implicit Euler <
WARNING:: AddEquationBasics: > Timestepping method < defaulted to > Implicit Euler <
WARNING:: AddEquationBasics: > Timestepping method < defaulted to > Implicit Euler <
WARNING:: AddEquationBasics: > Timestepping method < defaulted to > Implicit Euler <
WARNING:: AddEquationBasics: > Timestepping method < defaulted to > Implicit Euler <
WARNING:: AddEquationBasics: > Timestepping method < defaulted to > Implicit Euler <
WARNING:: AddEquationBasics: > Timestepping method < defaulted to > Implicit Euler <
WARNING:: AddEquationBasics: > Timestepping method < defaulted to > Implicit Euler <
WARNING:: AddEquationBasics: > Timestepping method < defaulted to > Implicit Euler <
WARNING:: AddEquationBasics: > Timestepping method < defaulted to > Implicit Euler <
WARNING:: AddEquationBasics: > Timestepping method < defaulted to > Implicit Euler <
WARNING:: AddEquationBasics: > Timestepping method < defaulted to > Implicit Euler <
WARNING:: AddEquationBasics: > Timestepping method < defaulted to > Implicit Euler <
WARNING:: AddEquationBasics: > Timestepping method < defaulted to > Implicit Euler <
WARNING:: AddEquationBasics: > Timestepping method < defaulted to > Implicit Euler <
WARNING:: AddEquationBasics: > Timestepping method < defaulted to > Implicit Euler <
WARNING:: AddEquationBasics: > Timestepping method < defaulted to > Implicit Euler <
WARNING:: AddEquationBasics: > Timestepping method < defaulted to > Implicit Euler <
WARNING:: AddEquationBasics: > Timestepping method < defaulted to > Implicit Euler <
WARNING:: AddEquationBasics: > Timestepping method < defaulted to > Implicit Euler <
WARNING:: AddEquationBasics: > Timestepping method < defaulted to > Implicit Euler <
WARNING:: AddEquationBasics: > Timestepping method < defaulted to > Implicit Euler <
WARNING:: AddEquationBasics: > Timestepping method < defaulted to > Implicit Euler <
WARNING:: AddEquationBasics: > Timestepping method < defaulted to > Implicit Euler <
WARNING:: AddEquationBasics: > Timestepping method < defaulted to > Implicit Euler <
WARNING:: AddEquationBasics: > Timestepping method < defaulted to > Implicit Euler <
WARNING:: AddEquationBasics: > Timestepping method < defaulted to > Implicit Euler <
WARNING:: AddEquationBasics: > Timestepping method < defaulted to > Implicit Euler <
WARNING:: AddEquationBasics: > Timestepping method < defaulted to > Implicit Euler <
WARNING:: AddEquationBasics: > Timestepping method < defaulted to > Implicit Euler <
WARNING:: AddEquationBasics: > Timestepping method < defaulted to > Implicit Euler <
WARNING:: AddEquationBasics: > Timestepping method < defaulted to > Implicit Euler <
WARNING:: AddEquationBasics: > Timestepping method < defaulted to > Implicit Euler <
WARNING:: AddEquationBasics: > Timestepping method < defaulted to > Implicit Euler <
WARNING:: AddEquationBasics: > Timestepping method < defaulted to > Implicit Euler <
WARNING:: AddEquationBasics: > Timestepping method < defaulted to > Implicit Euler <
WARNING:: AddEquationBasics: > Timestepping method < defaulted to > Implicit Euler <
WARNING:: AddEquationBasics: > Timestepping method < defaulted to > Implicit Euler <
WARNING:: AddEquationBasics: > Timestepping method < defaulted to > Implicit Euler <
WARNING:: AddEquationBasics: > Timestepping method < defaulted to > Implicit Euler <
WARNING:: AddEquationBasics: > Timestepping method < defaulted to > Implicit Euler <
Loading user function library: [StructuredProjectToPlane]...[StructuredProjectToPlane_bulk]
Loading user function library: [StructuredProjectToPlane]...[StructuredProjectToPlane]
WARNING:: AddEquationBasics: > Timestepping method < defaulted to > Implicit Euler <
WARNING:: AddEquationBasics: > Timestepping method < defaulted to > Implicit Euler <
WARNING:: AddEquationBasics: > Timestepping method < defaulted to > Implicit Euler <
WARNING:: AddEquationBasics: > Timestepping method < defaulted to > Implicit Euler <
WARNING:: AddEquationBasics: > Timestepping method < defaulted to > Implicit Euler <
WARNING:: AddEquationBasics: > Timestepping method < defaulted to > Implicit Euler <
WARNING:: AddEquationBasics: > Timestepping method < defaulted to > Implicit Euler <
WARNING:: AddEquationBasics: > Timestepping method < defaulted to > Implicit Euler <
WARNING:: AddEquationBasics: > Timestepping method < defaulted to > Implicit Euler <
WARNING:: AddEquationBasics: > Timestepping method < defaulted to > Implicit Euler <
WARNING:: AddEquationBasics: > Timestepping method < defaulted to > Implicit Euler <
WARNING:: AddEquationBasics: > Timestepping method < defaulted to > Implicit Euler <
WARNING:: AddEquationBasics: > Timestepping method < defaulted to > Implicit Euler <
WARNING:: AddEquationBasics: > Timestepping method < defaulted to > Implicit Euler <
WARNING:: AddEquationBasics: > Timestepping method < defaulted to > Implicit Euler <
WARNING:: AddEquationBasics: > Timestepping method < defaulted to > Implicit Euler <
WARNING:: AddEquationBasics: > Timestepping method < defaulted to > Implicit Euler <
WARNING:: AddEquationBasics: > Timestepping method < defaulted to > Implicit Euler <
WARNING:: AddEquationBasics: > Timestepping method < defaulted to > Implicit Euler <
WARNING:: AddEquationBasics: > Timestepping method < defaulted to > Implicit Euler <
WARNING:: AddEquationBasics: > Timestepping method < defaulted to > Implicit Euler <
WARNING:: AddEquationBasics: > Timestepping method < defaulted to > Implicit Euler <
WARNING:: AddEquationBasics: > Timestepping method < defaulted to > Implicit Euler <
WARNING:: AddEquationBasics: > Timestepping method < defaulted to > Implicit Euler <
WARNING:: AddEquationBasics: > Timestepping method < defaulted to > Implicit Euler <
WARNING:: AddEquationBasics: > Timestepping method < defaulted to > Implicit Euler <
WARNING:: AddEquationBasics: > Timestepping method < defaulted to > Implicit Euler <
WARNING:: AddEquationBasics: > Timestepping method < defaulted to > Implicit Euler <
WARNING:: AddEquationBasics: > Timestepping method < defaulted to > Implicit Euler <
WARNING:: AddEquationBasics: > Timestepping method < defaulted to > Implicit Euler <
WARNING:: AddEquationBasics: > Timestepping method < defaulted to > Implicit Euler <
WARNING:: AddEquationBasics: > Timestepping method < defaulted to > Implicit Euler <
WARNING:: AddEquationBasics: > Timestepping method < defaulted to > Implicit Euler <
WARNING:: AddEquationBasics: > Timestepping method < defaulted to > Implicit Euler <
WARNING:: AddEquationBasics: > Timestepping method < defaulted to > Implicit Euler <
WARNING:: AddEquationBasics: > Timestepping method < defaulted to > Implicit Euler <
WARNING:: AddEquationBasics: > Timestepping method < defaulted to > Implicit Euler <
WARNING:: AddEquationBasics: > Timestepping method < defaulted to > Implicit Euler <
WARNING:: AddEquationBasics: > Timestepping method < defaulted to > Implicit Euler <
WARNING:: AddEquationBasics: > Timestepping method < defaulted to > Implicit Euler <
WARNING:: AddEquationBasics: > Timestepping method < defaulted to > Implicit Euler <
WARNING:: AddEquationBasics: > Timestepping method < defaulted to > Implicit Euler <
WARNING:: AddEquationBasics: > Timestepping method < defaulted to > Implicit Euler <
WARNING:: AddEquationBasics: > Timestepping method < defaulted to > Implicit Euler <
AddEquationBasics: Setting up solver: groundedmask
WARNING:: AddEquationBasics: > Timestepping method < defaulted to > Implicit Euler <
WARNING:: AddEquationBasics: > Timestepping method < defaulted to > Implicit Euler <
WARNING:: AddEquationBasics: > Timestepping method < defaulted to > Implicit Euler <
WARNING:: AddEquationBasics: > Timestepping method < defaulted to > Implicit Euler <
WARNING:: AddEquationBasics: > Timestepping method < defaulted to > Implicit Euler <
WARNING:: AddEquationBasics: > Timestepping method < defaulted to > Implicit Euler <
WARNING:: AddEquationBasics: > Timestepping method < defaulted to > Implicit Euler <
WARNING:: AddEquationBasics: > Timestepping method < defaulted to > Implicit Euler <
WARNING:: AddEquationBasics: > Timestepping method < defaulted to > Implicit Euler <
WARNING:: AddEquationBasics: > Timestepping method < defaulted to > Implicit Euler <
WARNING:: AddEquationBasics: > Timestepping method < defaulted to > Implicit Euler <
WARNING:: AddEquationBasics: > Timestepping method < defaulted to > Implicit Euler <
WARNING:: AddEquationBasics: > Timestepping method < defaulted to > Implicit Euler <
WARNING:: AddEquationBasics: > Timestepping method < defaulted to > Implicit Euler <
WARNING:: AddEquationBasics: > Timestepping method < defaulted to > Implicit Euler <
WARNING:: AddEquationBasics: > Timestepping method < defaulted to > Implicit Euler <
WARNING:: AddEquationBasics: > Timestepping method < defaulted to > Implicit Euler <
WARNING:: AddEquationBasics: > Timestepping method < defaulted to > Implicit Euler <
WARNING:: AddEquationBasics: > Timestepping method < defaulted to > Implicit Euler <
WARNING:: AddEquationBasics: > Timestepping method < defaulted to > Implicit Euler <
Loading user function library: [ElmerIceSolvers]...[GroundedSolver_Init]
WARNING:: AddEquationBasics: > Timestepping method < defaulted to > Implicit Euler <
WARNING:: AddEquationBasics: > Timestepping method < defaulted to > Implicit Euler <
WARNING:: AddEquationBasics: > Timestepping method < defaulted to > Implicit Euler <
WARNING:: AddEquationBasics: > Timestepping method < defaulted to > Implicit Euler <
WARNING:: AddEquationBasics: > Timestepping method < defaulted to > Implicit Euler <
WARNING:: AddEquationBasics: > Timestepping method < defaulted to > Implicit Euler <
WARNING:: AddEquationBasics: > Timestepping method < defaulted to > Implicit Euler <
WARNING:: AddEquationBasics: > Timestepping method < defaulted to > Implicit Euler <
WARNING:: AddEquationBasics: > Timestepping method < defaulted to > Implicit Euler <
WARNING:: AddEquationBasics: > Timestepping method < defaulted to > Implicit Euler <
WARNING:: AddEquationBasics: > Timestepping method < defaulted to > Implicit Euler <
WARNING:: AddEquationBasics: > Timestepping method < defaulted to > Implicit Euler <
WARNING:: AddEquationBasics: > Timestepping method < defaulted to > Implicit Euler <
WARNING:: AddEquationBasics: > Timestepping method < defaulted to > Implicit Euler <
WARNING:: AddEquationBasics: > Timestepping method < defaulted to > Implicit Euler <
WARNING:: AddEquationBasics: > Timestepping method < defaulted to > Implicit Euler <
WARNING:: AddEquationBasics: > Timestepping method < defaulted to > Implicit Euler <
WARNING:: AddEquationBasics: > Timestepping method < defaulted to > Implicit Euler <
WARNING:: AddEquationBasics: > Timestepping method < defaulted to > Implicit Euler <
WARNING:: AddEquationBasics: > Timestepping method < defaulted to > Implicit Euler <
WARNING:: AddEquationBasics: > Timestepping method < defaulted to > Implicit Euler <
WARNING:: AddEquationBasics: > Timestepping method < defaulted to > Implicit Euler <
WARNING:: AddEquationBasics: > Timestepping method < defaulted to > Implicit Euler <
WARNING:: AddEquationBasics: > Timestepping method < defaulted to > Implicit Euler <
WARNING:: AddEquationBasics: > Timestepping method < defaulted to > Implicit Euler <
WARNING:: AddEquationBasics: > Timestepping method < defaulted to > Implicit Euler <
WARNING:: AddEquationBasics: > Timestepping method < defaulted to > Implicit Euler <
WARNING:: AddEquationBasics: > Timestepping method < defaulted to > Implicit Euler <
WARNING:: AddEquationBasics: > Timestepping method < defaulted to > Implicit Euler <
WARNING:: AddEquationBasics: > Timestepping method < defaulted to > Implicit Euler <
WARNING:: AddEquationBasics: > Timestepping method < defaulted to > Implicit Euler <
WARNING:: AddEquationBasics: > Timestepping method < defaulted to > Implicit Euler <
WARNING:: AddEquationBasics: > Timestepping method < defaulted to > Implicit Euler <
WARNING:: AddEquationBasics: > Timestepping method < defaulted to > Implicit Euler <
WARNING:: AddEquationBasics: > Timestepping method < defaulted to > Implicit Euler <
WARNING:: AddEquationBasics: > Timestepping method < defaulted to > Implicit Euler <
WARNING:: AddEquationBasics: > Timestepping method < defaulted to > Implicit Euler <
WARNING:: AddEquationBasics: > Timestepping method < defaulted to > Implicit Euler <
WARNING:: AddEquationBasics: > Timestepping method < defaulted to > Implicit Euler <
WARNING:: AddEquationBasics: > Timestepping method < defaulted to > Implicit Euler <
WARNING:: AddEquationBasics: > Timestepping method < defaulted to > Implicit Euler <
WARNING:: AddEquationBasics: > Timestepping method < defaulted to > Implicit Euler <
WARNING:: AddEquationBasics: > Timestepping method < defaulted to > Implicit Euler <
WARNING:: AddEquationBasics: > Timestepping method < defaulted to > Implicit Euler <
WARNING:: AddEquationBasics: > Timestepping method < defaulted to > Implicit Euler <
WARNING:: AddEquationBasics: > Timestepping method < defaulted to > Implicit Euler <
WARNING:: AddEquationBasics: > Timestepping method < defaulted to > Implicit Euler <
WARNING:: AddEquationBasics: > Timestepping method < defaulted to > Implicit Euler <
WARNING:: AddEquationBasics: > Timestepping method < defaulted to > Implicit Euler <
WARNING:: AddEquationBasics: > Timestepping method < defaulted to > Implicit Euler <
WARNING:: AddEquationBasics: > Timestepping method < defaulted to > Implicit Euler <
WARNING:: AddEquationBasics: > Timestepping method < defaulted to > Implicit Euler <
WARNING:: AddEquationBasics: > Timestepping method < defaulted to > Implicit Euler <
WARNING:: AddEquationBasics: > Timestepping method < defaulted to > Implicit Euler <
WARNING:: AddEquationBasics: > Timestepping method < defaulted to > Implicit Euler <
WARNING:: AddEquationBasics: > Timestepping method < defaulted to > Implicit Euler <
WARNING:: AddEquationBasics: > Timestepping method < defaulted to > Implicit Euler <
WARNING:: AddEquationBasics: > Timestepping method < defaulted to > Implicit Euler <
WARNING:: AddEquationBasics: > Timestepping method < defaulted to > Implicit Euler <
WARNING:: AddEquationBasics: > Timestepping method < defaulted to > Implicit Euler <
WARNING:: AddEquationBasics: > Timestepping method < defaulted to > Implicit Euler <
WARNING:: AddEquationBasics: > Timestepping method < defaulted to > Implicit Euler <
WARNING:: AddEquationBasics: > Timestepping method < defaulted to > Implicit Euler <
WARNING:: AddEquationBasics: > Timestepping method < defaulted to > Implicit Euler <
Loading user function library: [ElmerIceSolvers]...[GroundedSolver_bulk]
Loading user function library: [ElmerIceSolvers]...[GroundedSolver]
WARNING:: AddEquationBasics: > Timestepping method < defaulted to > Implicit Euler <
WARNING:: AddEquationBasics: > Timestepping method < defaulted to > Implicit Euler <
WARNING:: AddEquationBasics: > Timestepping method < defaulted to > Implicit Euler <
WARNING:: AddEquationBasics: > Timestepping method < defaulted to > Implicit Euler <
WARNING:: AddEquationBasics: > Timestepping method < defaulted to > Implicit Euler <
WARNING:: AddEquationBasics: > Timestepping method < defaulted to > Implicit Euler <
WARNING:: AddEquationBasics: > Timestepping method < defaulted to > Implicit Euler <
WARNING:: AddEquationBasics: > Timestepping method < defaulted to > Implicit Euler <
WARNING:: AddEquationBasics: > Timestepping method < defaulted to > Implicit Euler <
WARNING:: AddEquationBasics: > Timestepping method < defaulted to > Implicit Euler <
WARNING:: AddEquationBasics: > Timestepping method < defaulted to > Implicit Euler <
WARNING:: AddEquationBasics: > Timestepping method < defaulted to > Implicit Euler <
WARNING:: AddEquationBasics: > Timestepping method < defaulted to > Implicit Euler <
WARNING:: AddEquationBasics: > Timestepping method < defaulted to > Implicit Euler <
WARNING:: AddEquationBasics: > Timestepping method < defaulted to > Implicit Euler <
WARNING:: AddEquationBasics: > Timestepping method < defaulted to > Implicit Euler <
WARNING:: AddEquationBasics: > Timestepping method < defaulted to > Implicit Euler <
WARNING:: AddEquationBasics: > Timestepping method < defaulted to > Implicit Euler <
WARNING:: AddEquationBasics: > Timestepping method < defaulted to > Implicit Euler <
WARNING:: AddEquationBasics: > Timestepping method < defaulted to > Implicit Euler <
WARNING:: AddEquationBasics: > Timestepping method < defaulted to > Implicit Euler <
WARNING:: AddEquationBasics: > Timestepping method < defaulted to > Implicit Euler <
WARNING:: AddEquationBasics: > Timestepping method < defaulted to > Implicit Euler <
WARNING:: AddEquationBasics: > Timestepping method < defaulted to > Implicit Euler <
WARNING:: AddEquationBasics: > Timestepping method < defaulted to > Implicit Euler <
WARNING:: AddEquationBasics: > Timestepping method < defaulted to > Implicit Euler <
WARNING:: AddEquationBasics: > Timestepping method < defaulted to > Implicit Euler <
WARNING:: AddEquationBasics: > Timestepping method < defaulted to > Implicit Euler <
WARNING:: AddEquationBasics: > Timestepping method < defaulted to > Implicit Euler <
WARNING:: AddEquationBasics: > Timestepping method < defaulted to > Implicit Euler <
WARNING:: AddEquationBasics: > Timestepping method < defaulted to > Implicit Euler <
WARNING:: AddEquationBasics: > Timestepping method < defaulted to > Implicit Euler <
WARNING:: AddEquationBasics: > Timestepping method < defaulted to > Implicit Euler <
WARNING:: AddEquationBasics: > Timestepping method < defaulted to > Implicit Euler <
WARNING:: AddEquationBasics: > Timestepping method < defaulted to > Implicit Euler <
WARNING:: AddEquationBasics: > Timestepping method < defaulted to > Implicit Euler <
WARNING:: AddEquationBasics: > Timestepping method < defaulted to > Implicit Euler <
WARNING:: AddEquationBasics: > Timestepping method < defaulted to > Implicit Euler <
WARNING:: AddEquationBasics: > Timestepping method < defaulted to > Implicit Euler <
WARNING:: AddEquationBasics: > Timestepping method < defaulted to > Implicit Euler <
WARNING:: AddEquationBasics: > Timestepping method < defaulted to > Implicit Euler <
WARNING:: AddEquationBasics: > Timestepping method < defaulted to > Implicit Euler <
WARNING:: AddEquationBasics: > Timestepping method < defaulted to > Implicit Euler <
WARNING:: AddEquationBasics: > Timestepping method < defaulted to > Implicit Euler <
WARNING:: AddEquationBasics: > Timestepping method < defaulted to > Implicit Euler <
WARNING:: AddEquationBasics: > Timestepping method < defaulted to > Implicit Euler <
WARNING:: AddEquationBasics: > Timestepping method < defaulted to > Implicit Euler <
WARNING:: AddEquationBasics: > Timestepping method < defaulted to > Implicit Euler <
AddEquationBasics: Creating standard variable: groundedmask
WARNING:: AddEquationBasics: > Timestepping method < defaulted to > Implicit Euler <
WARNING:: AddEquationBasics: > Timestepping method < defaulted to > Implicit Euler <
WARNING:: AddEquationBasics: > Timestepping method < defaulted to > Implicit Euler <
WARNING:: AddEquationBasics: > Timestepping method < defaulted to > Implicit Euler <
WARNING:: AddEquationBasics: > Timestepping method < defaulted to > Implicit Euler <
WARNING:: AddEquationBasics: > Timestepping method < defaulted to > Implicit Euler <
WARNING:: AddEquationBasics: > Timestepping method < defaulted to > Implicit Euler <
WARNING:: AddEquationBasics: > Timestepping method < defaulted to > Implicit Euler <
WARNING:: AddEquationBasics: > Timestepping method < defaulted to > Implicit Euler <
WARNING:: AddEquationBasics: > Timestepping method < defaulted to > Implicit Euler <
WARNING:: AddEquationBasics: > Timestepping method < defaulted to > Implicit Euler <
WARNING:: AddEquationBasics: > Timestepping method < defaulted to > Implicit Euler <
WARNING:: AddEquationBasics: > Timestepping method < defaulted to > Implicit Euler <
WARNING:: AddEquationBasics: > Timestepping method < defaulted to > Implicit Euler <
WARNING:: AddEquationBasics: > Timestepping method < defaulted to > Implicit Euler <
WARNING:: AddEquationBasics: > Timestepping method < defaulted to > Implicit Euler <
WARNING:: AddEquationBasics: > Timestepping method < defaulted to > Implicit Euler <
WARNING:: AddEquationBasics: > Timestepping method < defaulted to > Implicit Euler <
WARNING:: AddEquationBasics: > Timestepping method < defaulted to > Implicit Euler <
WARNING:: AddEquationBasics: > Timestepping method < defaulted to > Implicit Euler <
WARNING:: AddEquationBasics: > Timestepping method < defaulted to > Implicit Euler <
WARNING:: AddEquationBasics: > Timestepping method < defaulted to > Implicit Euler <
WARNING:: AddEquationBasics: > Timestepping method < defaulted to > Implicit Euler <
WARNING:: AddEquationBasics: > Timestepping method < defaulted to > Implicit Euler <
WARNING:: AddEquationBasics: > Timestepping method < defaulted to > Implicit Euler <
WARNING:: AddEquationBasics: > Timestepping method < defaulted to > Implicit Euler <
WARNING:: AddEquationBasics: > Timestepping method < defaulted to > Implicit Euler <
WARNING:: AddEquationBasics: > Timestepping method < defaulted to > Implicit Euler <
WARNING:: AddEquationBasics: > Timestepping method < defaulted to > Implicit Euler <
WARNING:: AddEquationBasics: > Timestepping method < defaulted to > Implicit Euler <
WARNING:: AddEquationBasics: > Timestepping method < defaulted to > Implicit Euler <
WARNING:: AddEquationBasics: > Timestepping method < defaulted to > Implicit Euler <
WARNING:: AddEquationBasics: > Timestepping method < defaulted to > Implicit Euler <
WARNING:: AddEquationBasics: > Timestepping method < defaulted to > Implicit Euler <
WARNING:: AddEquationBasics: > Timestepping method < defaulted to > Implicit Euler <
WARNING:: AddEquationBasics: > Timestepping method < defaulted to > Implicit Euler <
WARNING:: AddEquationBasics: > Timestepping method < defaulted to > Implicit Euler <
WARNING:: AddEquationBasics: > Timestepping method < defaulted to > Implicit Euler <
WARNING:: AddEquationBasics: > Timestepping method < defaulted to > Implicit Euler <
WARNING:: AddEquationBasics: > Timestepping method < defaulted to > Implicit Euler <
WARNING:: AddEquationBasics: > Timestepping method < defaulted to > Implicit Euler <
WARNING:: AddEquationBasics: > Timestepping method < defaulted to > Implicit Euler <
WARNING:: AddEquationBasics: > Timestepping method < defaulted to > Implicit Euler <
WARNING:: AddEquationBasics: > Timestepping method < defaulted to > Implicit Euler <
WARNING:: AddEquationBasics: > Timestepping method < defaulted to > Implicit Euler <
WARNING:: AddEquationBasics: > Timestepping method < defaulted to > Implicit Euler <
WARNING:: AddEquationBasics: > Timestepping method < defaulted to > Implicit Euler <
WARNING:: AddEquationBasics: > Timestepping method < defaulted to > Implicit Euler <
WARNING:: AddEquationBasics: > Timestepping method < defaulted to > Implicit Euler <
WARNING:: AddEquationBasics: > Timestepping method < defaulted to > Implicit Euler <
WARNING:: AddEquationBasics: > Timestepping method < defaulted to > Implicit Euler <
WARNING:: AddEquationBasics: > Timestepping method < defaulted to > Implicit Euler <
WARNING:: AddEquationBasics: > Timestepping method < defaulted to > Implicit Euler <
WARNING:: AddEquationBasics: > Timestepping method < defaulted to > Implicit Euler <
WARNING:: AddEquationBasics: > Timestepping method < defaulted to > Implicit Euler <
WARNING:: AddEquationBasics: > Timestepping method < defaulted to > Implicit Euler <
WARNING:: AddEquationBasics: > Timestepping method < defaulted to > Implicit Euler <
WARNING:: AddEquationBasics: > Timestepping method < defaulted to > Implicit Euler <
WARNING:: AddEquationBasics: > Timestepping method < defaulted to > Implicit Euler <
WARNING:: AddEquationBasics: > Timestepping method < defaulted to > Implicit Euler <
WARNING:: AddEquationBasics: > Timestepping method < defaulted to > Implicit Euler <
WARNING:: AddEquationBasics: > Timestepping method < defaulted to > Implicit Euler <
WARNING:: AddEquationBasics: > Timestepping method < defaulted to > Implicit Euler <
WARNING:: AddEquationBasics: > Timestepping method < defaulted to > Implicit Euler <
WARNING:: AddEquationBasics: > Timestepping method < defaulted to > Implicit Euler <
WARNING:: AddEquationBasics: > Timestepping method < defaulted to > Implicit Euler <
WARNING:: AddEquationBasics: > Timestepping method < defaulted to > Implicit Euler <
WARNING:: AddEquationBasics: > Timestepping method < defaulted to > Implicit Euler <
WARNING:: AddEquationBasics: > Timestepping method < defaulted to > Implicit Euler <
WARNING:: AddEquationBasics: > Timestepping method < defaulted to > Implicit Euler <
WARNING:: AddEquationBasics: > Timestepping method < defaulted to > Implicit Euler <
WARNING:: AddEquationBasics: > Timestepping method < defaulted to > Implicit Euler <
WARNING:: AddEquationBasics: > Timestepping method < defaulted to > Implicit Euler <
WARNING:: AddEquationBasics: > Timestepping method < defaulted to > Implicit Euler <
WARNING:: AddEquationBasics: > Timestepping method < defaulted to > Implicit Euler <
WARNING:: AddEquationBasics: > Timestepping method < defaulted to > Implicit Euler <
WARNING:: AddEquationBasics: > Timestepping method < defaulted to > Implicit Euler <
WARNING:: AddEquationBasics: > Timestepping method < defaulted to > Implicit Euler <
WARNING:: AddEquationBasics: > Timestepping method < defaulted to > Implicit Euler <
WARNING:: AddEquationBasics: > Timestepping method < defaulted to > Implicit Euler <
OptimizeBandwidth: ---------------------------------------------------------
OptimizeBandwidth: Computing matrix structure for: groundedmask...done.
OptimizeBandwidth: Half bandwidth without optimization: 352
OptimizeBandwidth: 
OptimizeBandwidth: Bandwidth Optimization ...done.
OptimizeBandwidth: Half bandwidth after optimization: 40
OptimizeBandwidth: ---------------------------------------------------------
AddEquationBasics: Setting up solver: normal vector
Loading user function library: [ElmerIceSolvers]...[ComputeNormalSolver_Init]
WARNING:: AddEquationBasics: > Timestepping method < defaulted to > Implicit Euler <
WARNING:: AddEquationBasics: > Timestepping method < defaulted to > Implicit Euler <
WARNING:: AddEquationBasics: > Timestepping method < defaulted to > Implicit Euler <
Loading user function library: [ElmerIceSolvers]...[ComputeNormalSolver_bulk]
WARNING:: AddEquationBasics: > Timestepping method < defaulted to > Implicit Euler <
WARNING:: AddEquationBasics: > Timestepping method < defaulted to > Implicit Euler <
WARNING:: AddEquationBasics: > Timestepping method < defaulted to > Implicit Euler <
WARNING:: AddEquationBasics: > Timestepping method < defaulted to > Implicit Euler <
Loading user function library: [ElmerIceSolvers]...[ComputeNormalSolver]
WARNING:: AddEquationBasics: > Timestepping method < defaulted to > Implicit Euler <
WARNING:: AddEquationBasics: > Timestepping method < defaulted to > Implicit Euler <
WARNING:: AddEquationBasics: > Timestepping method < defaulted to > Implicit Euler <
WARNING:: AddEquationBasics: > Timestepping method < defaulted to > Implicit Euler <
WARNING:: AddEquationBasics: > Timestepping method < defaulted to > Implicit Euler <
WARNING:: AddEquationBasics: > Timestepping method < defaulted to > Implicit Euler <
WARNING:: AddEquationBasics: > Timestepping method < defaulted to > Implicit Euler <
WARNING:: AddEquationBasics: > Timestepping method < defaulted to > Implicit Euler <
WARNING:: AddEquationBasics: > Timestepping method < defaulted to > Implicit Euler <
WARNING:: AddEquationBasics: > Timestepping method < defaulted to > Implicit Euler <
WARNING:: AddEquationBasics: > Timestepping method < defaulted to > Implicit Euler <
WARNING:: AddEquationBasics: > Timestepping method < defaulted to > Implicit Euler <
WARNING:: AddEquationBasics: > Timestepping method < defaulted to > Implicit Euler <
WARNING:: AddEquationBasics: > Timestepping method < defaulted to > Implicit Euler <
WARNING:: AddEquationBasics: > Timestepping method < defaulted to > Implicit Euler <
WARNING:: AddEquationBasics: > Timestepping method < defaulted to > Implicit Euler <
WARNING:: AddEquationBasics: > Timestepping method < defaulted to > Implicit Euler <
WARNING:: AddEquationBasics: > Timestepping method < defaulted to > Implicit Euler <
WARNING:: AddEquationBasics: > Timestepping method < defaulted to > Implicit Euler <
WARNING:: AddEquationBasics: > Timestepping method < defaulted to > Implicit Euler <
WARNING:: AddEquationBasics: > Timestepping method < defaulted to > Implicit Euler <
WARNING:: AddEquationBasics: > Timestepping method < defaulted to > Implicit Euler <
WARNING:: AddEquationBasics: > Timestepping method < defaulted to > Implicit Euler <
WARNING:: AddEquationBasics: > Timestepping method < defaulted to > Implicit Euler <
WARNING:: AddEquationBasics: > Timestepping method < defaulted to > Implicit Euler <
WARNING:: AddEquationBasics: > Timestepping method < defaulted to > Implicit Euler <
WARNING:: AddEquationBasics: > Timestepping method < defaulted to > Implicit Euler <
WARNING:: AddEquationBasics: > Timestepping method < defaulted to > Implicit Euler <
WARNING:: AddEquationBasics: > Timestepping method < defaulted to > Implicit Euler <
WARNING:: AddEquationBasics: > Timestepping method < defaulted to > Implicit Euler <
WARNING:: AddEquationBasics: > Timestepping method < defaulted to > Implicit Euler <
WARNING:: AddEquationBasics: > Timestepping method < defaulted to > Implicit Euler <
WARNING:: AddEquationBasics: > Timestepping method < defaulted to > Implicit Euler <
WARNING:: AddEquationBasics: > Timestepping method < defaulted to > Implicit Euler <
WARNING:: AddEquationBasics: > Timestepping method < defaulted to > Implicit Euler <
WARNING:: AddEquationBasics: > Timestepping method < defaulted to > Implicit Euler <
WARNING:: AddEquationBasics: > Timestepping method < defaulted to > Implicit Euler <
WARNING:: AddEquationBasics: > Timestepping method < defaulted to > Implicit Euler <
[...]
ResultOutputSolver: Working on mesh:
ResultOutputSolver: Dimension of mesh is: 3
ResultOutputSolver: Saving in unstructured VTK XML (.vtu) format
GenerateSaveMask: Number of active elements 10608 out of 10608
GenerateSaveMask: Number of geometry nodes 5475 out of 5475
VtuOutputSolver: Setting offset for boundary entities: 100
VtuOutputSolver: Writing the vtu file: ./vtuoutputs/tg_dv_sr_gef_128np001_t0009.vtu
AscBinWriteInit: Initializing buffered ascii/binary writing
ResultOutputSolver: -------------------------------------
Loading user function library: [ResultOutputSolve]...[ResultOutputSolver_post]
SolveEquations: -------------------------------------
SolveEquations:  Coupled system iteration:           10
SolveEquations: -------------------------------------
SingleSolver: Attempting to call solver
SingleSolver: Solver Equation string is: normal vector
ComputeNormalSolver: Computing Normal Vector for Nodes
ComputeNormalSolver: End
Loading user function library: [ElmerIceSolvers]...[ComputeNormalSolver_post]
ComputeChange: SS (ITER=10) (NRM,RELC): ( 0.25554476      0.0000000     ) :: normal vector
SingleSolver: Attempting to call solver
SingleSolver: Solver Equation string is: fw
Update Periodic Nodes for: fwater 1: Start
UpdatePeriodicNodes: All Done
Update Periodic Nodes for: fwater 2: Start
UpdatePeriodicNodes: All Done
Update Periodic Nodes for: fwater 3: Start
UpdatePeriodicNodes: All Done
GetHydrostaticLoads: End
Loading user function library: [ElmerIceSolvers]...[GetHydrostaticLoads_post]
ComputeChange: SS (ITER=10) (NRM,RELC): ( 0.10298061E+09  0.0000000     ) :: fw
SingleSolver: Attempting to call solver
SingleSolver: Solver Equation string is: navier-stokes
FlowSolver: Solving the Navier-Stokes equations
FlowSolve: 
FlowSolve: 
FlowSolve: -------------------------------------
FlowSolve:  NAVIER-STOKES ITERATION           1
FlowSolve: -------------------------------------
FlowSolve: 
FlowSolve: Starting Assembly...
FlowSolve: Assembly:
: .Saving bulk values for: navier-stokes
FlowSolve: Assembly done
DefUtils::DefaultDirichletBCs: Setting Dirichlet boundary conditions
EnforceDirichletConditions: Applying Dirichlet conditions using scaled diagonal
EnforceDirichletConditions: Dirichlet conditions enforced for dofs: 39307
FlowSolve: Dirichlet conditions done
SolveLinearSystem: Assuming real valued linear system
SolveLinearSystem: Assuming parallel linear system
SolveLinearSystem: Parallel linear System Solver: direct
DirectSolver: Using direct method: mumps
SolveLinearSystem: Calculating nodal loads
ComputeChange: NS (ITER=1) (NRM,RELC): (  697.09377     0.33211367E-02 ) :: navier-stokes
SolveSystem: Linear system time (CPU,REAL) for flow solution:    78.95   86.50 (s)
FlowSolve: iter:    1 Assembly: (s)    1.60    1.60
FlowSolve: iter:    1 Solve:    (s)   78.95   78.95
FlowSolve:  Result Norm     :    697.09377066548655
FlowSolve:  Relative Change :    3.3211366641186439E-003
Loading user function library: [FlowSolve]...[FlowSolver_post]
SolverActivate: Solver time (CPU,REAL) for navier-stokes:    80.55   88.11 (s)
ComputeChange: SS (ITER=10) (NRM,RELC): (  697.09377     0.33211367E-02 ) :: navier-stokes
SingleSolver: Attempting to call solver
SingleSolver: Solver Equation string is: stresssolver
ComputeDevStress: 
ComputeDevStress: 
ComputeDevStress: 
ComputeDevStress: 
ComputeDevStress: Starting assembly...
ComputeDevStress:  Component :   1
ComputeDevStress: Assembly done
DefUtils::DefaultDirichletBCs: Setting Dirichlet boundary conditions
ComputeDevStress: Set boundaries done
SolveLinearSystem: Assuming real valued linear system
SolveLinearSystem: Assuming parallel linear system
SolveLinearSystem: Linear System Preconditioning: ilu1
SolveLinearSystem: Parallel linear System Solver: iterative
SParIterSolver: Solving linear in parallel with iterative methods
IterSolver: Using iterative method: bicgstab
CRS_IncompleteLU: ILU(1) (Real), Performing Factorization:
CRS_IncompleteLU: ILU(1) (Real), NOF nonzeros:    196412
CRS_IncompleteLU: ILU(1) (Real), filling (%) :       210
CRS_IncompleteLU: ILU(1) (Real), Factorization ready at (s):     0.01
       1 0.1685E-01
       2 0.3816E-03
       3 0.4235E-04
       4 0.3176E-05
       5 0.2195E-06
       6 0.9060E-08
       6 0.9060E-08
ComputeChange: NS (ITER=1) (NRM,RELC): (  11.047212      1.9752715     ) :: stresssolver
ComputeDevStress:  Component :   2
ComputeDevStress: Assembly done
DefUtils::DefaultDirichletBCs: Setting Dirichlet boundary conditions
ComputeDevStress: Set boundaries done
SolveLinearSystem: Assuming real valued linear system
SolveLinearSystem: Assuming parallel linear system
SolveLinearSystem: Linear System Preconditioning: ilu1
SolveLinearSystem: Parallel linear System Solver: iterative
SParIterSolver: Solving linear in parallel with iterative methods
IterSolver: Using iterative method: bicgstab
CRS_IncompleteLU: ILU(1) (Real), Performing Factorization:
CRS_IncompleteLU: ILU(1) (Real), NOF nonzeros:    196412
CRS_IncompleteLU: ILU(1) (Real), filling (%) :       210
CRS_IncompleteLU: ILU(1) (Real), Factorization ready at (s):     0.01
       1 0.1808E-03
       2 0.5119E-05
       3 0.4939E-06
       4 0.2984E-07
       4 0.2984E-07
ComputeChange: NS (ITER=2) (NRM,RELC): (  11.067914     0.18722487E-02 ) :: stresssolver
ComputeDevStress:  Component :   3
ComputeDevStress:    Assembly:  22 % done
ComputeDevStress: Assembly done
DefUtils::DefaultDirichletBCs: Setting Dirichlet boundary conditions
ComputeDevStress: Set boundaries done
SolveLinearSystem: Assuming real valued linear system
SolveLinearSystem: Assuming parallel linear system
SolveLinearSystem: Linear System Preconditioning: ilu1
SolveLinearSystem: Parallel linear System Solver: iterative
SParIterSolver: Solving linear in parallel with iterative methods
IterSolver: Using iterative method: bicgstab
CRS_IncompleteLU: ILU(1) (Real), Performing Factorization:
CRS_IncompleteLU: ILU(1) (Real), NOF nonzeros:    196412
CRS_IncompleteLU: ILU(1) (Real), filling (%) :       210
CRS_IncompleteLU: ILU(1) (Real), Factorization ready at (s):     0.01
       1 0.2056E-03
       2 0.6725E-05
       3 0.6356E-06
       4 0.3752E-07
       4 0.3752E-07
ComputeChange: NS (ITER=3) (NRM,RELC): (  11.073591     0.51273098E-03 ) :: stresssolver
ComputeDevStress:  Component :   4
ComputeDevStress: Assembly done
DefUtils::DefaultDirichletBCs: Setting Dirichlet boundary conditions
ComputeDevStress: Set boundaries done
SolveLinearSystem: Assuming real valued linear system
SolveLinearSystem: Assuming parallel linear system
SolveLinearSystem: Linear System Preconditioning: ilu1
SolveLinearSystem: Parallel linear System Solver: iterative
SParIterSolver: Solving linear in parallel with iterative methods
IterSolver: Using iterative method: bicgstab
CRS_IncompleteLU: ILU(1) (Real), Performing Factorization:
CRS_IncompleteLU: ILU(1) (Real), NOF nonzeros:    196412
CRS_IncompleteLU: ILU(1) (Real), filling (%) :       210
CRS_IncompleteLU: ILU(1) (Real), Factorization ready at (s):     0.01
       1 0.3245E+01
       2 0.7355E-01
       3 0.8155E-02
       4 0.6100E-03
       5 0.4208E-04
       6 0.1742E-05
       7 0.8580E-07
       7 0.8580E-07
ComputeChange: NS (ITER=4) (NRM,RELC): ( 0.29411366      1.8965090     ) :: stresssolver
ComputeDevStress:  Component :   5
ComputeDevStress:    Assembly:  45 % done
ComputeDevStress: Assembly done
DefUtils::DefaultDirichletBCs: Setting Dirichlet boundary conditions
ComputeDevStress: Set boundaries done
SolveLinearSystem: Assuming real valued linear system
SolveLinearSystem: Assuming parallel linear system
SolveLinearSystem: Linear System Preconditioning: ilu1
SolveLinearSystem: Parallel linear System Solver: iterative
SParIterSolver: Solving linear in parallel with iterative methods
IterSolver: Using iterative method: bicgstab
CRS_IncompleteLU: ILU(1) (Real), Performing Factorization:
CRS_IncompleteLU: ILU(1) (Real), NOF nonzeros:    196412
CRS_IncompleteLU: ILU(1) (Real), filling (%) :       210
CRS_IncompleteLU: ILU(1) (Real), Factorization ready at (s):     0.01
       1 0.6009E-01
       2 0.1885E-02
       3 0.1728E-03
       4 0.1017E-04
       5 0.6986E-06
       6 0.4150E-07
       6 0.4150E-07
ComputeChange: NS (ITER=5) (NRM,RELC): ( 0.46559446E-01  1.4533241     ) :: stresssolver
ComputeDevStress:  Component :   6
ComputeDevStress: Assembly done
DefUtils::DefaultDirichletBCs: Setting Dirichlet boundary conditions
ComputeDevStress: Set boundaries done
SolveLinearSystem: Assuming real valued linear system
SolveLinearSystem: Assuming parallel linear system
SolveLinearSystem: Linear System Preconditioning: ilu1
SolveLinearSystem: Parallel linear System Solver: iterative
SParIterSolver: Solving linear in parallel with iterative methods
IterSolver: Using iterative method: bicgstab
CRS_IncompleteLU: ILU(1) (Real), Performing Factorization:
CRS_IncompleteLU: ILU(1) (Real), NOF nonzeros:    196412
CRS_IncompleteLU: ILU(1) (Real), filling (%) :       210
CRS_IncompleteLU: ILU(1) (Real), Factorization ready at (s):     0.01
       1 0.1765E-01
       2 0.6601E-03
       3 0.5183E-04
       4 0.2817E-05
       5 0.2199E-06
       6 0.1482E-07
       6 0.1482E-07
ComputeChange: NS (ITER=6) (NRM,RELC): ( 0.68927377E-01 0.38736767     ) :: stresssolver
ComputeDevStress:  Result Norm   :    2.2282676263599459        4.6559446272437410E-002
ComputeDevStress:  Relative Change :    1.9181310142954122
Loading user function library: [ElmerIceSolvers]...[ComputeDevStress_post]
ComputeChange: SS (ITER=10) (NRM,RELC): ( 0.68927377E-01 0.30104749E-02 ) :: stresssolver
SingleSolver: Attempting to call solver
SingleSolver: Solver Equation string is: resultoutput
ResultOutputSolver: -------------------------------------
ResultOutputSolver: Working on mesh:
ResultOutputSolver: Dimension of mesh is: 3
ResultOutputSolver: Saving in unstructured VTK XML (.vtu) format
GenerateSaveMask: Number of active elements 10608 out of 10608
GenerateSaveMask: Number of geometry nodes 5475 out of 5475
VtuOutputSolver: Setting offset for boundary entities: 100
VtuOutputSolver: Writing the vtu file: ./vtuoutputs/tg_dv_sr_gef_128np001_t0010.vtu
AscBinWriteInit: Initializing buffered ascii/binary writing
ResultOutputSolver: -------------------------------------
Loading user function library: [ResultOutputSolve]...[ResultOutputSolver_post]
SolveEquations: Coupled system iteration: 10
WARNING:: SolveEquations: Numerical Error: Coupled system did not converge
WARNING:: SolveEquations: Numerical Error: Coupled system did not converge
WARNING:: SolveEquations: Numerical Error: Coupled system did not converge
WARNING:: SolveEquations: Numerical Error: Coupled system did not converge
WARNING:: SolveEquations: Numerical Error: Coupled system did not converge
WARNING:: SolveEquations: Numerical Error: Coupled system did not converge
WARNING:: SolveEquations: Numerical Error: Coupled system did not converge
WARNING:: SolveEquations: Numerical Error: Coupled system did not converge
WARNING:: SolveEquations: Numerical Error: Coupled system did not converge
WARNING:: SolveEquations: Numerical Error: Coupled system did not converge
WARNING:: SolveEquations: Numerical Error: Coupled system did not converge
WARNING:: SolveEquations: Numerical Error: Coupled system did not converge
WARNING:: SolveEquations: Numerical Error: Coupled system did not converge
WARNING:: SolveEquations: Numerical Error: Coupled system did not converge
WARNING:: SolveEquations: Numerical Error: Coupled system did not converge
WARNING:: SolveEquations: Numerical Error: Coupled system did not converge
WARNING:: SolveEquations: Numerical Error: Coupled system did not converge
WARNING:: SolveEquations: Numerical Error: Coupled system did not converge
WARNING:: SolveEquations: Numerical Error: Coupled system did not converge
WARNING:: SolveEquations: Numerical Error: Coupled system did not converge
WARNING:: SolveEquations: Numerical Error: Coupled system did not converge
WARNING:: SolveEquations: Numerical Error: Coupled system did not converge
WARNING:: SolveEquations: Numerical Error: Coupled system did not converge
WARNING:: SolveEquations: Numerical Error: Coupled system did not converge
WARNING:: SolveEquations: Numerical Error: Coupled system did not converge
WARNING:: SolveEquations: Numerical Error: Coupled system did not converge
WARNING:: SolveEquations: Numerical Error: Coupled system did not converge
WARNING:: SolveEquations: Numerical Error: Coupled system did not converge
WARNING:: SolveEquations: Numerical Error: Coupled system did not converge
WARNING:: SolveEquations: Numerical Error: Coupled system did not converge
WARNING:: SolveEquations: Numerical Error: Coupled system did not converge
WARNING:: SolveEquations: Numerical Error: Coupled system did not converge
WARNING:: SolveEquations: Numerical Error: Coupled system did not converge
WARNING:: SolveEquations: Numerical Error: Coupled system did not converge
WARNING:: SolveEquations: Numerical Error: Coupled system did not converge
WARNING:: SolveEquations: Numerical Error: Coupled system did not converge
WARNING:: SolveEquations: Numerical Error: Coupled system did not converge
WARNING:: SolveEquations: Numerical Error: Coupled system did not converge
WARNING:: SolveEquations: Numerical Error: Coupled system did not converge
WARNING:: SolveEquations: Numerical Error: Coupled system did not converge
WARNING:: SolveEquations: Numerical Error: Coupled system did not converge
WARNING:: SolveEquations: Numerical Error: Coupled system did not converge
WARNING:: SolveEquations: Numerical Error: Coupled system did not converge
WARNING:: SolveEquations: Numerical Error: Coupled system did not converge
WARNING:: SolveEquations: Numerical Error: Coupled system did not converge
WARNING:: SolveEquations: Numerical Error: Coupled system did not converge
WARNING:: SolveEquations: Numerical Error: Coupled system did not converge
WARNING:: SolveEquations: Numerical Error: Coupled system did not converge
WARNING:: SolveEquations: Numerical Error: Coupled system did not converge
WARNING:: SolveEquations: Numerical Error: Coupled system did not converge
WARNING:: SolveEquations: Numerical Error: Coupled system did not converge
WARNING:: SolveEquations: Numerical Error: Coupled system did not converge
WARNING:: SolveEquations: Numerical Error: Coupled system did not converge
WARNING:: SolveEquations: Numerical Error: Coupled system did not converge
WARNING:: SolveEquations: Numerical Error: Coupled system did not converge
WARNING:: SolveEquations: Numerical Error: Coupled system did not converge
WARNING:: SolveEquations: Numerical Error: Coupled system did not converge
WARNING:: SolveEquations: Numerical Error: Coupled system did not converge
WARNING:: SolveEquations: Numerical Error: Coupled system did not converge
WARNING:: SolveEquations: Numerical Error: Coupled system did not converge
WARNING:: SolveEquations: Numerical Error: Coupled system did not converge
WARNING:: SolveEquations: Numerical Error: Coupled system did not converge
WARNING:: SolveEquations: Numerical Error: Coupled system did not converge
WARNING:: SolveEquations: Numerical Error: Coupled system did not converge
WARNING:: SolveEquations: Numerical Error: Coupled system did not converge
WARNING:: SolveEquations: Numerical Error: Coupled system did not converge
WARNING:: SolveEquations: Numerical Error: Coupled system did not converge
WARNING:: SolveEquations: Numerical Error: Coupled system did not converge
WARNING:: SolveEquations: Numerical Error: Coupled system did not converge
WARNING:: SolveEquations: Numerical Error: Coupled system did not converge
WARNING:: SolveEquations: Numerical Error: Coupled system did not converge
WARNING:: SolveEquations: Numerical Error: Coupled system did not converge
WARNING:: SolveEquations: Numerical Error: Coupled system did not converge
WARNING:: SolveEquations: Numerical Error: Coupled system did not converge
WARNING:: SolveEquations: Numerical Error: Coupled system did not converge
WARNING:: SolveEquations: Numerical Error: Coupled system did not converge
WARNING:: SolveEquations: Numerical Error: Coupled system did not converge
WARNING:: SolveEquations: Numerical Error: Coupled system did not converge
WARNING:: SolveEquations: Numerical Error: Coupled system did not converge
WARNING:: SolveEquations: Numerical Error: Coupled system did not converge
WARNING:: SolveEquations: Numerical Error: Coupled system did not converge
WARNING:: SolveEquations: Numerical Error: Coupled system did not converge
WARNING:: SolveEquations: Numerical Error: Coupled system did not converge
WARNING:: SolveEquations: Numerical Error: Coupled system did not converge
WARNING:: SolveEquations: Numerical Error: Coupled system did not converge
WARNING:: SolveEquations: Numerical Error: Coupled system did not converge
WARNING:: SolveEquations: Numerical Error: Coupled system did not converge
WARNING:: SolveEquations: Numerical Error: Coupled system did not converge
WARNING:: SolveEquations: Numerical Error: Coupled system did not converge
WARNING:: SolveEquations: Numerical Error: Coupled system did not converge
WARNING:: SolveEquations: Numerical Error: Coupled system did not converge
WARNING:: SolveEquations: Numerical Error: Coupled system did not converge
WARNING:: SolveEquations: Numerical Error: Coupled system did not converge
WARNING:: SolveEquations: Numerical Error: Coupled system did not converge
WARNING:: SolveEquations: Numerical Error: Coupled system did not converge
WARNING:: SolveEquations: Numerical Error: Coupled system did not converge
WARNING:: SolveEquations: Numerical Error: Coupled system did not converge
WARNING:: SolveEquations: Numerical Error: Coupled system did not converge
WARNING:: SolveEquations: Numerical Error: Coupled system did not converge
WARNING:: SolveEquations: Numerical Error: Coupled system did not converge
WARNING:: SolveEquations: Numerical Error: Coupled system did not converge
WARNING:: SolveEquations: Numerical Error: Coupled system did not converge
WARNING:: SolveEquations: Numerical Error: Coupled system did not converge
WARNING:: SolveEquations: Numerical Error: Coupled system did not converge
WARNING:: SolveEquations: Numerical Error: Coupled system did not converge
WARNING:: SolveEquations: Numerical Error: Coupled system did not converge
WARNING:: SolveEquations: Numerical Error: Coupled system did not converge
WARNING:: SolveEquations: Numerical Error: Coupled system did not converge
WARNING:: SolveEquations: Numerical Error: Coupled system did not converge
WARNING:: SolveEquations: Numerical Error: Coupled system did not converge
WARNING:: SolveEquations: Numerical Error: Coupled system did not converge
WARNING:: SolveEquations: Numerical Error: Coupled system did not converge
WARNING:: SolveEquations: Numerical Error: Coupled system did not converge
WARNING:: SolveEquations: Numerical Error: Coupled system did not converge
WARNING:: SolveEquations: Numerical Error: Coupled system did not converge
WARNING:: SolveEquations: Numerical Error: Coupled system did not converge
WARNING:: SolveEquations: Numerical Error: Coupled system did not converge
WARNING:: SolveEquations: Numerical Error: Coupled system did not converge
WARNING:: SolveEquations: Numerical Error: Coupled system did not converge
WARNING:: SolveEquations: Numerical Error: Coupled system did not converge
WARNING:: SolveEquations: Numerical Error: Coupled system did not converge
WARNING:: SolveEquations: Numerical Error: Coupled system did not converge
WARNING:: SolveEquations: Numerical Error: Coupled system did not converge
WARNING:: SolveEquations: Numerical Error: Coupled system did not converge
WARNING:: SolveEquations: Numerical Error: Coupled system did not converge
WARNING:: SolveEquations: Numerical Error: Coupled system did not converge
WARNING:: SolveEquations: Numerical Error: Coupled system did not converge
WARNING:: SolveEquations: Numerical Error: Coupled system did not converge
