ELMER SOLVER (v 8.4) STARTED AT: 2020/10/06 17:12:09
ELMER SOLVER (v 8.4) STARTED AT: 2020/10/06 17:12:09
ELMER SOLVER (v 8.4) STARTED AT: 2020/10/06 17:12:09
ELMER SOLVER (v 8.4) STARTED AT: 2020/10/06 17:12:09
ELMER SOLVER (v 8.4) STARTED AT: 2020/10/06 17:12:09
ELMER SOLVER (v 8.4) STARTED AT: 2020/10/06 17:12:09
ELMER SOLVER (v 8.4) STARTED AT: 2020/10/06 17:12:09
ELMER SOLVER (v 8.4) STARTED AT: 2020/10/06 17:12:09
ELMER SOLVER (v 8.4) STARTED AT: 2020/10/06 17:12:09
ELMER SOLVER (v 8.4) STARTED AT: 2020/10/06 17:12:09
ELMER SOLVER (v 8.4) STARTED AT: 2020/10/06 17:12:09
ELMER SOLVER (v 8.4) STARTED AT: 2020/10/06 17:12:09
ELMER SOLVER (v 8.4) STARTED AT: 2020/10/06 17:12:09
ELMER SOLVER (v 8.4) STARTED AT: 2020/10/06 17:12:09
ELMER SOLVER (v 8.4) STARTED AT: 2020/10/06 17:12:09
ELMER SOLVER (v 8.4) STARTED AT: 2020/10/06 17:12:09
ELMER SOLVER (v 8.4) STARTED AT: 2020/10/06 17:12:09
ELMER SOLVER (v 8.4) STARTED AT: 2020/10/06 17:12:09
ELMER SOLVER (v 8.4) STARTED AT: 2020/10/06 17:12:09
ELMER SOLVER (v 8.4) STARTED AT: 2020/10/06 17:12:09
ELMER SOLVER (v 8.4) STARTED AT: 2020/10/06 17:12:09
ELMER SOLVER (v 8.4) STARTED AT: 2020/10/06 17:12:09
ELMER SOLVER (v 8.4) STARTED AT: 2020/10/06 17:12:09
ELMER SOLVER (v 8.4) STARTED AT: 2020/10/06 17:12:09
ELMER SOLVER (v 8.4) STARTED AT: 2020/10/06 17:12:09
ELMER SOLVER (v 8.4) STARTED AT: 2020/10/06 17:12:09
ELMER SOLVER (v 8.4) STARTED AT: 2020/10/06 17:12:09
ELMER SOLVER (v 8.4) STARTED AT: 2020/10/06 17:12:09
ELMER SOLVER (v 8.4) STARTED AT: 2020/10/06 17:12:09
ELMER SOLVER (v 8.4) STARTED AT: 2020/10/06 17:12:09
ELMER SOLVER (v 8.4) STARTED AT: 2020/10/06 17:12:09
ELMER SOLVER (v 8.4) STARTED AT: 2020/10/06 17:12:09
ELMER SOLVER (v 8.4) STARTED AT: 2020/10/06 17:12:09
ELMER SOLVER (v 8.4) STARTED AT: 2020/10/06 17:12:09
ELMER SOLVER (v 8.4) STARTED AT: 2020/10/06 17:12:09
ELMER SOLVER (v 8.4) STARTED AT: 2020/10/06 17:12:09
ELMER SOLVER (v 8.4) STARTED AT: 2020/10/06 17:12:09
ELMER SOLVER (v 8.4) STARTED AT: 2020/10/06 17:12:09
ELMER SOLVER (v 8.4) STARTED AT: 2020/10/06 17:12:09
ELMER SOLVER (v 8.4) STARTED AT: 2020/10/06 17:12:09
ELMER SOLVER (v 8.4) STARTED AT: 2020/10/06 17:12:09
ELMER SOLVER (v 8.4) STARTED AT: 2020/10/06 17:12:09
ELMER SOLVER (v 8.4) STARTED AT: 2020/10/06 17:12:09
ELMER SOLVER (v 8.4) STARTED AT: 2020/10/06 17:12:09
ELMER SOLVER (v 8.4) STARTED AT: 2020/10/06 17:12:09
ELMER SOLVER (v 8.4) STARTED AT: 2020/10/06 17:12:09
ELMER SOLVER (v 8.4) STARTED AT: 2020/10/06 17:12:09
ELMER SOLVER (v 8.4) STARTED AT: 2020/10/06 17:12:09
ELMER SOLVER (v 8.4) STARTED AT: 2020/10/06 17:12:09
ELMER SOLVER (v 8.4) STARTED AT: 2020/10/06 17:12:09
ELMER SOLVER (v 8.4) STARTED AT: 2020/10/06 17:12:09
ELMER SOLVER (v 8.4) STARTED AT: 2020/10/06 17:12:09
ELMER SOLVER (v 8.4) STARTED AT: 2020/10/06 17:12:09
ELMER SOLVER (v 8.4) STARTED AT: 2020/10/06 17:12:09
ELMER SOLVER (v 8.4) STARTED AT: 2020/10/06 17:12:09
ELMER SOLVER (v 8.4) STARTED AT: 2020/10/06 17:12:09
ELMER SOLVER (v 8.4) STARTED AT: 2020/10/06 17:12:09
ELMER SOLVER (v 8.4) STARTED AT: 2020/10/06 17:12:09
ELMER SOLVER (v 8.4) STARTED AT: 2020/10/06 17:12:09
ELMER SOLVER (v 8.4) STARTED AT: 2020/10/06 17:12:09
ELMER SOLVER (v 8.4) STARTED AT: 2020/10/06 17:12:09
ELMER SOLVER (v 8.4) STARTED AT: 2020/10/06 17:12:09
ELMER SOLVER (v 8.4) STARTED AT: 2020/10/06 17:12:09
ELMER SOLVER (v 8.4) STARTED AT: 2020/10/06 17:12:09
ELMER SOLVER (v 8.4) STARTED AT: 2020/10/06 17:12:09
ELMER SOLVER (v 8.4) STARTED AT: 2020/10/06 17:12:09
ELMER SOLVER (v 8.4) STARTED AT: 2020/10/06 17:12:09
ELMER SOLVER (v 8.4) STARTED AT: 2020/10/06 17:12:09
ELMER SOLVER (v 8.4) STARTED AT: 2020/10/06 17:12:09
ELMER SOLVER (v 8.4) STARTED AT: 2020/10/06 17:12:09
ELMER SOLVER (v 8.4) STARTED AT: 2020/10/06 17:12:09
ELMER SOLVER (v 8.4) STARTED AT: 2020/10/06 17:12:09
ELMER SOLVER (v 8.4) STARTED AT: 2020/10/06 17:12:09
ELMER SOLVER (v 8.4) STARTED AT: 2020/10/06 17:12:09
ELMER SOLVER (v 8.4) STARTED AT: 2020/10/06 17:12:09
ELMER SOLVER (v 8.4) STARTED AT: 2020/10/06 17:12:09
ELMER SOLVER (v 8.4) STARTED AT: 2020/10/06 17:12:09
ELMER SOLVER (v 8.4) STARTED AT: 2020/10/06 17:12:09
ELMER SOLVER (v 8.4) STARTED AT: 2020/10/06 17:12:09
ELMER SOLVER (v 8.4) STARTED AT: 2020/10/06 17:12:09
ELMER SOLVER (v 8.4) STARTED AT: 2020/10/06 17:12:09
ELMER SOLVER (v 8.4) STARTED AT: 2020/10/06 17:12:09
ELMER SOLVER (v 8.4) STARTED AT: 2020/10/06 17:12:09
ELMER SOLVER (v 8.4) STARTED AT: 2020/10/06 17:12:09
ELMER SOLVER (v 8.4) STARTED AT: 2020/10/06 17:12:09
ELMER SOLVER (v 8.4) STARTED AT: 2020/10/06 17:12:09
ELMER SOLVER (v 8.4) STARTED AT: 2020/10/06 17:12:09
ELMER SOLVER (v 8.4) STARTED AT: 2020/10/06 17:12:09
ELMER SOLVER (v 8.4) STARTED AT: 2020/10/06 17:12:09
ELMER SOLVER (v 8.4) STARTED AT: 2020/10/06 17:12:09
ELMER SOLVER (v 8.4) STARTED AT: 2020/10/06 17:12:09
ELMER SOLVER (v 8.4) STARTED AT: 2020/10/06 17:12:09
ELMER SOLVER (v 8.4) STARTED AT: 2020/10/06 17:12:09
ELMER SOLVER (v 8.4) STARTED AT: 2020/10/06 17:12:09
ELMER SOLVER (v 8.4) STARTED AT: 2020/10/06 17:12:09
ELMER SOLVER (v 8.4) STARTED AT: 2020/10/06 17:12:09
ELMER SOLVER (v 8.4) STARTED AT: 2020/10/06 17:12:09
ELMER SOLVER (v 8.4) STARTED AT: 2020/10/06 17:12:09
ELMER SOLVER (v 8.4) STARTED AT: 2020/10/06 17:12:09
ELMER SOLVER (v 8.4) STARTED AT: 2020/10/06 17:12:09
ELMER SOLVER (v 8.4) STARTED AT: 2020/10/06 17:12:09
ELMER SOLVER (v 8.4) STARTED AT: 2020/10/06 17:12:09
ELMER SOLVER (v 8.4) STARTED AT: 2020/10/06 17:12:09
ELMER SOLVER (v 8.4) STARTED AT: 2020/10/06 17:12:09
ELMER SOLVER (v 8.4) STARTED AT: 2020/10/06 17:12:09
ELMER SOLVER (v 8.4) STARTED AT: 2020/10/06 17:12:09
ELMER SOLVER (v 8.4) STARTED AT: 2020/10/06 17:12:09
ELMER SOLVER (v 8.4) STARTED AT: 2020/10/06 17:12:09
ELMER SOLVER (v 8.4) STARTED AT: 2020/10/06 17:12:09
ELMER SOLVER (v 8.4) STARTED AT: 2020/10/06 17:12:09
ELMER SOLVER (v 8.4) STARTED AT: 2020/10/06 17:12:09
ELMER SOLVER (v 8.4) STARTED AT: 2020/10/06 17:12:09
ELMER SOLVER (v 8.4) STARTED AT: 2020/10/06 17:12:09
ELMER SOLVER (v 8.4) STARTED AT: 2020/10/06 17:12:09
ELMER SOLVER (v 8.4) STARTED AT: 2020/10/06 17:12:09
ELMER SOLVER (v 8.4) STARTED AT: 2020/10/06 17:12:09
ELMER SOLVER (v 8.4) STARTED AT: 2020/10/06 17:12:09
ELMER SOLVER (v 8.4) STARTED AT: 2020/10/06 17:12:09
ELMER SOLVER (v 8.4) STARTED AT: 2020/10/06 17:12:09
ELMER SOLVER (v 8.4) STARTED AT: 2020/10/06 17:12:09
ELMER SOLVER (v 8.4) STARTED AT: 2020/10/06 17:12:09
ELMER SOLVER (v 8.4) STARTED AT: 2020/10/06 17:12:09
ELMER SOLVER (v 8.4) STARTED AT: 2020/10/06 17:12:09
ELMER SOLVER (v 8.4) STARTED AT: 2020/10/06 17:12:09
ELMER SOLVER (v 8.4) STARTED AT: 2020/10/06 17:12:09
ELMER SOLVER (v 8.4) STARTED AT: 2020/10/06 17:12:09
ELMER SOLVER (v 8.4) STARTED AT: 2020/10/06 17:12:09
ELMER SOLVER (v 8.4) STARTED AT: 2020/10/06 17:12:09
ParCommInit:  Initialize #PEs:          128
ParCommInit:  Initialize #PEs:          128
ParCommInit:  Initialize #PEs:          128
ParCommInit:  Initialize #PEs:          128
ParCommInit:  Initialize #PEs:          128
ParCommInit:  Initialize #PEs:          128
ParCommInit:  Initialize #PEs:          128
ParCommInit:  Initialize #PEs:          128
ParCommInit:  Initialize #PEs:          128
ParCommInit:  Initialize #PEs:          128
ParCommInit:  Initialize #PEs:          128
ParCommInit:  Initialize #PEs:          128
ParCommInit:  Initialize #PEs:          128
ParCommInit:  Initialize #PEs:          128
ParCommInit:  Initialize #PEs:          128
ParCommInit:  Initialize #PEs:          128
ParCommInit:  Initialize #PEs:          128
ParCommInit:  Initialize #PEs:          128
ParCommInit:  Initialize #PEs:          128
ParCommInit:  Initialize #PEs:          128
ParCommInit:  Initialize #PEs:          128
ParCommInit:  Initialize #PEs:          128
ParCommInit:  Initialize #PEs:          128
ParCommInit:  Initialize #PEs:          128
ParCommInit:  Initialize #PEs:          128
ParCommInit:  Initialize #PEs:          128
ParCommInit:  Initialize #PEs:          128
ParCommInit:  Initialize #PEs:          128
ParCommInit:  Initialize #PEs:          128
ParCommInit:  Initialize #PEs:          128
ParCommInit:  Initialize #PEs:          128
ParCommInit:  Initialize #PEs:          128
ParCommInit:  Initialize #PEs:          128
ParCommInit:  Initialize #PEs:          128
ParCommInit:  Initialize #PEs:          128
ParCommInit:  Initialize #PEs:          128
ParCommInit:  Initialize #PEs:          128
ParCommInit:  Initialize #PEs:          128
ParCommInit:  Initialize #PEs:          128
ParCommInit:  Initialize #PEs:          128
ParCommInit:  Initialize #PEs:          128
ParCommInit:  Initialize #PEs:          128
ParCommInit:  Initialize #PEs:          128
ParCommInit:  Initialize #PEs:          128
ParCommInit:  Initialize #PEs:          128
ParCommInit:  Initialize #PEs:          128
ParCommInit:  Initialize #PEs:          128
ParCommInit:  Initialize #PEs:          128
ParCommInit:  Initialize #PEs:          128
ParCommInit:  Initialize #PEs:          128
ParCommInit:  Initialize #PEs:          128
ParCommInit:  Initialize #PEs:          128
ParCommInit:  Initialize #PEs:          128
ParCommInit:  Initialize #PEs:          128
ParCommInit:  Initialize #PEs:          128
ParCommInit:  Initialize #PEs:          128
ParCommInit:  Initialize #PEs:          128
ParCommInit:  Initialize #PEs:          128
ParCommInit:  Initialize #PEs:          128
ParCommInit:  Initialize #PEs:          128
ParCommInit:  Initialize #PEs:          128
ParCommInit:  Initialize #PEs:          128
ParCommInit:  Initialize #PEs:          128
ParCommInit:  Initialize #PEs:          128
ParCommInit:  Initialize #PEs:          128
ParCommInit:  Initialize #PEs:          128
ParCommInit:  Initialize #PEs:          128
ParCommInit:  Initialize #PEs:          128
ParCommInit:  Initialize #PEs:          128
ParCommInit:  Initialize #PEs:          128
ParCommInit:  Initialize #PEs:          128
ParCommInit:  Initialize #PEs:          128
ParCommInit:  Initialize #PEs:          128
ParCommInit:  Initialize #PEs:          128
ParCommInit:  Initialize #PEs:          128
ParCommInit:  Initialize #PEs:          128
ParCommInit:  Initialize #PEs:          128
ParCommInit:  Initialize #PEs:          128
ParCommInit:  Initialize #PEs:          128
ParCommInit:  Initialize #PEs:          128
ParCommInit:  Initialize #PEs:          128
ParCommInit:  Initialize #PEs:          128
ParCommInit:  Initialize #PEs:          128
ParCommInit:  Initialize #PEs:          128
ParCommInit:  Initialize #PEs:          128
ParCommInit:  Initialize #PEs:          128
ParCommInit:  Initialize #PEs:          128
ParCommInit:  Initialize #PEs:          128
ParCommInit:  Initialize #PEs:          128
ParCommInit:  Initialize #PEs:          128
ParCommInit:  Initialize #PEs:          128
ParCommInit:  Initialize #PEs:          128
ParCommInit:  Initialize #PEs:          128
ParCommInit:  Initialize #PEs:          128
ParCommInit:  Initialize #PEs:          128
ParCommInit:  Initialize #PEs:          128
ParCommInit:  Initialize #PEs:          128
ParCommInit:  Initialize #PEs:          128
ParCommInit:  Initialize #PEs:          128
ParCommInit:  Initialize #PEs:          128
ParCommInit:  Initialize #PEs:          128
ParCommInit:  Initialize #PEs:          128
ParCommInit:  Initialize #PEs:          128
ParCommInit:  Initialize #PEs:          128
ParCommInit:  Initialize #PEs:          128
ParCommInit:  Initialize #PEs:          128
ParCommInit:  Initialize #PEs:          128
ParCommInit:  Initialize #PEs:          128
ParCommInit:  Initialize #PEs:          128
ParCommInit:  Initialize #PEs:          128
ParCommInit:  Initialize #PEs:          128
ParCommInit:  Initialize #PEs:          128
ParCommInit:  Initialize #PEs:          128
ParCommInit:  Initialize #PEs:          128
ParCommInit:  Initialize #PEs:          128
ParCommInit:  Initialize #PEs:          128
ParCommInit:  Initialize #PEs:          128
ParCommInit:  Initialize #PEs:          128
ParCommInit:  Initialize #PEs:          128
ParCommInit:  Initialize #PEs:          128
ParCommInit:  Initialize #PEs:          128
ParCommInit:  Initialize #PEs:          128
ParCommInit:  Initialize #PEs:          128
ParCommInit:  Initialize #PEs:          128
ParCommInit:  Initialize #PEs:          128
ParCommInit:  Initialize #PEs:          128
ParCommInit:  Initialize #PEs:          128
ParCommInit:  Initialize #PEs:          128
MAIN: 
MAIN: =============================================================
MAIN: ElmerSolver finite element software, Welcome!
MAIN: This program is free software licensed under (L)GPL
MAIN: Copyright 1st April 1995 - , CSC - IT Center for Science Ltd.
MAIN: Webpage http://www.csc.fi/elmer, Email elmeradm@csc.fi
MAIN: Version: 8.4 (Rev: 9709cdd, Compiled: 2020-07-23)
MAIN:  Running in parallel using 128 tasks.
MAIN:  Running with just one thread per task.
MAIN:  HYPRE library linked in.
MAIN:  MUMPS library linked in.
MAIN:  Lua interpreted linked in.
MAIN: =============================================================
LoadInputFile: Reading only "Run Control" section
MAIN: 
MAIN: 
MAIN: -------------------------------------
MAIN: Reading Model: TG_relax_S2.sif
LoadInputFile: Scanning input file: TG_relax_S2.sif
LoadInputFile: Scanning only size info
LoadInputFile: First time visiting
LoadInputFile: Reading base load of sif file
LoadInputFile: Loading input file: TG_relax_S2.sif
LoadInputFile: Reading base load of sif file
Model Input:  Unlisted keyword: [buoyancy use basal melt] in section: [constants]
Model Input:  Unlisted keyword: [bottom surface name] in section: [constants]
Model Input:  Unlisted keyword: [sea level] in section: [constants]
Model Input:  Unlisted keyword: [water density] in section: [constants]
Model Input:  Unlisted keyword: [gamma 0] in section: [constants]
Model Input:  Unlisted keyword: [ice density] in section: [constants]
Model Input:  Unlisted keyword: [sw density] in section: [constants]
Model Input:  Unlisted keyword: [latent heat] in section: [constants]
Model Input:  Unlisted keyword: [sw cp] in section: [constants]
Model Input:  Unlisted keyword: [fs upper] in section: [initial condition 1]
Model Input:  Unlisted keyword: [fs lower] in section: [initial condition 1]
Model Input:  Unlisted keyword: [bmb] in section: [initial condition 2]
Model Input:  Unlisted keyword: [fs lower accumulation flux 1] in section: [body force 2]
Model Input:  Unlisted keyword: [fs lower accumulation flux 2] in section: [body force 2]
Model Input:  Unlisted keyword: [fs lower accumulation flux 3] in section: [body force 2]
Model Input:  Unlisted keyword: [fs upper accumulation flux 1] in section: [body force 3]
Model Input:  Unlisted keyword: [fs upper accumulation flux 2] in section: [body force 3]
Model Input:  Unlisted keyword: [cauchy] in section: [material 1]
Model Input:  Unlisted keyword: [limit temperature] in section: [material 1]
Model Input:  Unlisted keyword: [sea level] in section: [material 1]
Model Input:  Unlisted keyword: [min fs upper] in section: [material 3]
Model Input:  Unlisted keyword: [minimum height] in section: [solver 1]
Model Input:  Unlisted keyword: [top surface variable name] in section: [solver 1]
Model Input:  Unlisted keyword: [bottom surface variable name] in section: [solver 1]
Model Input:  Unlisted keyword: [correct surface] in section: [solver 1]
Model Input:  Unlisted keyword: [x dim name] in section: [solver 2]
Model Input:  Unlisted keyword: [y dim name] in section: [solver 2]
Model Input:  Unlisted keyword: [x var name] in section: [solver 2]
Model Input:  Unlisted keyword: [y var name] in section: [solver 2]
Model Input:  Unlisted keyword: [epsilon x] in section: [solver 2]
Model Input:  Unlisted keyword: [epsilon y] in section: [solver 2]
Model Input:  Unlisted keyword: [interpolation bias] in section: [solver 2]
Model Input:  Unlisted keyword: [interpolation multiplier] in section: [solver 2]
Model Input:  Unlisted keyword: [enable scaling] in section: [solver 2]
Model Input:  Unlisted keyword: [x dim name] in section: [solver 3]
Model Input:  Unlisted keyword: [y dim name] in section: [solver 3]
Model Input:  Unlisted keyword: [z dim name] in section: [solver 3]
Model Input:  Unlisted keyword: [x var name] in section: [solver 3]
Model Input:  Unlisted keyword: [y var name] in section: [solver 3]
Model Input:  Unlisted keyword: [z var name] in section: [solver 3]
Model Input:  Unlisted keyword: [epsilon x] in section: [solver 3]
Model Input:  Unlisted keyword: [epsilon y] in section: [solver 3]
Model Input:  Unlisted keyword: [interpolation bias] in section: [solver 3]
Model Input:  Unlisted keyword: [interpolation multiplier] in section: [solver 3]
Model Input:  Unlisted keyword: [enable scaling] in section: [solver 3]
Model Input:  Unlisted keyword: [nonlocal melt rate] in section: [solver 4]
Model Input:  Unlisted keyword: [meltrate mask] in section: [solver 4]
Model Input:  Unlisted keyword: [minimum height] in section: [solver 5]
Model Input:  Unlisted keyword: [top surface variable name] in section: [solver 5]
Model Input:  Unlisted keyword: [bottom surface variable name] in section: [solver 5]
Model Input:  Unlisted keyword: [correct surface] in section: [solver 5]
Model Input:  Unlisted keyword: [toler] in section: [solver 7]
Model Input:  Unlisted keyword: [computeall] in section: [solver 8]
Model Input:  Unlisted keyword: [flow solver name] in section: [solver 11]
Model Input:  Unlisted keyword: [stress variable name] in section: [solver 11]
Model Input:  Unlisted keyword: [eigenvalue variable name] in section: [solver 15]
Model Input:  Unlisted keyword: [tensor variable name] in section: [solver 15]
Model Input:  Unlisted keyword: [test contact tolerance] in section: [boundary condition 3]
Model Input:  Unlisted keyword: [height] in section: [boundary condition 3]
Model Input:  Unlisted keyword: [fs lower condition] in section: [boundary condition 3]
Model Input:  Unlisted keyword: [grounding line definition] in section: [boundary condition 3]
Model Input:  Unlisted keyword: [sliding law] in section: [boundary condition 3]
Model Input:  Unlisted keyword: [friction law sliding coefficient] in section: [boundary condition 3]
Model Input:  Unlisted keyword: [friction law post-peak exponent] in section: [boundary condition 3]
Model Input:  Unlisted keyword: [friction law maximum value] in section: [boundary condition 3]
Model Input:  Unlisted keyword: [friction law powerlaw exponent] in section: [boundary condition 3]
Model Input:  Unlisted keyword: [friction law linear velocity] in section: [boundary condition 3]
Loading user function library: [USF_CoV]...[TenPowerA_masked]
Loading user function library: [USF_CoV]...[TenPowerA_masked]
Loading user function library: [ElmerIceUSF]...[SeaSpring]
Model Input:  Unlisted keyword: [compute sea spring] in section: [boundary condition 3]
Model Input:  Unlisted keyword: [depth] in section: [boundary condition 4]
LoadInputFile: Number of BCs: 4
LoadInputFile: Number of Body Forces: 3
LoadInputFile: Number of Initial Conditions: 2
LoadInputFile: Number of Materials: 3
LoadInputFile: Number of Equations: 3
LoadInputFile: Number of Solvers: 15
LoadInputFile: Number of Bodies: 3
Loading user function library: [StructuredMeshMapper]...[StructuredMeshMapper_Init0]
Loading user function library: [GridDataReader]...[GridDataReader_Init0]
Loading user function library: [GridDataReader]...[GridDataReader_Init0]
Loading user function library: [MeltrateSolver]...[MeltrateSolver_Init0]
Loading user function library: [StructuredMeshMapper]...[StructuredMeshMapper_Init0]
Loading user function library: [StructuredProjectToPlane]...[StructuredProjectToPlane_Init0]
Loading user function library: [ElmerIceSolvers]...[GroundedSolver_Init0]
Loading user function library: [ElmerIceSolvers]...[ComputeNormalSolver_Init0]
Loading user function library: [ElmerIceSolvers]...[GetHydrostaticLoads_Init0]
Loading user function library: [ElmerIceSolvers]...[ComputeDevStress_Init0]
Loading user function library: [FreeSurfaceSolver]...[FreeSurfaceSolver_Init0]
Loading user function library: [FreeSurfaceSolver]...[FreeSurfaceSolver_Init0]
Loading user function library: [ResultOutputSolve]...[ResultOutputSolver_Init0]
Loading user function library: [ElmerIceSolvers]...[ComputeEigenValues_Init0]
LoadMesh: Starting
ElmerAsciiMesh: Performing step: 1
LoadMesh: Base mesh name: ./../mesh2D_TG_refpart/
InitializeMesh: Number of nodes in mesh: 364
InitializeMesh: Number of bulk elements in mesh: 586
InitializeMesh: Number of boundary elements in mesh: 108
ElmerAsciiMesh: Performing step: 2
SetMeshDimension: Dimension of mesh is: 2
SetMeshDimension: Max dimension of mesh is: 2
ElmerAsciiMesh: Performing step: 3
ElmerAsciiMesh: Performing step: 4
LoadMesh: Performing node mapping
LoadMesh: Remapping boundaries
LoadMesh: Minimum initial boundary index: 1
LoadMesh: Maximum initial boundary index: 1
ElmerAsciiMesh: Performing step: 5
ElmerAsciiMesh: Performing step: 6
LoadMesh: Loading mesh done
LoadMesh: Elapsed REAL time:     0.0463 (s)
MeshStabParams: Computing stabilization parameters
MeshStabParams: Elapsed REAL time:     0.0002 (s)
UnitSegmentDivision: Creating functional division
UnitSegmentDivision: Convergence obtained in 135 iterations
UnitSegmentDivision: Mesh division ready
UnitSegmentDivision: w(0) :   0.0000E+00
UnitSegmentDivision: w(1) :   3.7444E-02
UnitSegmentDivision: w(2) :   7.8392E-02
UnitSegmentDivision: w(3) :   1.2317E-01
UnitSegmentDivision: w(4) :   1.7215E-01
UnitSegmentDivision: w(5) :   2.2571E-01
UnitSegmentDivision: w(6) :   2.8428E-01
UnitSegmentDivision: w(7) :   3.4833E-01
UnitSegmentDivision: w(8) :   4.1838E-01
UnitSegmentDivision: w(9) :   4.9499E-01
UnitSegmentDivision: w(10) :   5.7877E-01
UnitSegmentDivision: w(11) :   6.7039E-01
UnitSegmentDivision: w(12) :   7.7059E-01
UnitSegmentDivision: w(13) :   8.8017E-01
UnitSegmentDivision: w(14) :   1.0000E+00
MeshExtrude: First Extruded BC set to: 3
MeshExtrude: Number of new BCs for layers: 1
SetMeshDimension: Dimension of mesh is: 3
SetMeshDimension: Max dimension of mesh is: 3
NonNodalElements: Requested elements require creation of edges
FindMeshEdges: Determining faces in 3D mesh
FindMeshEdges: Determining edges in 3D mesh
MAIN: -------------------------------------
AddEquationBasics: Setting up solver: mapcoordinate_init
Loading user function library: [StructuredMeshMapper]...[StructuredMeshMapper_Init]
Loading user function library: [StructuredMeshMapper]...[StructuredMeshMapper_bulk]
Loading user function library: [StructuredMeshMapper]...[StructuredMeshMapper]
AddEquationBasics: Setting up solver: deltat
Loading user function library: [GridDataReader]...[GridDataReader_Init]
Loading user function library: [GridDataReader]...[GridDataReader_bulk]
Loading user function library: [GridDataReader]...[GridDataReader]
AddEquationBasics: Setting up solver: tfeq
Loading user function library: [GridDataReader]...[GridDataReader_Init]
Loading user function library: [GridDataReader]...[GridDataReader_bulk]
Loading user function library: [GridDataReader]...[GridDataReader]
AddEquationBasics: Setting up solver: get meltrate
Loading user function library: [MeltrateSolver]...[MeltrateSolver_Init]
Loading user function library: [MeltrateSolver]...[MeltrateSolver_bulk]
Loading user function library: [MeltrateSolver]...[MeltrateSolver]
AddEquationBasics: Creating standard variable: bmb
OptimizeBandwidth: ---------------------------------------------------------
OptimizeBandwidth: Computing matrix structure for: get meltrate...done.
OptimizeBandwidth: Half bandwidth without optimization: 728
OptimizeBandwidth: 
OptimizeBandwidth: Bandwidth Optimization ...done.
OptimizeBandwidth: Half bandwidth after optimization: 594
OptimizeBandwidth: ---------------------------------------------------------
AddEquationBasics: Setting up solver: mapcoordinate
Loading user function library: [StructuredMeshMapper]...[StructuredMeshMapper_Init]
Loading user function library: [StructuredMeshMapper]...[StructuredMeshMapper_bulk]
Loading user function library: [StructuredMeshMapper]...[StructuredMeshMapper]
AddEquationBasics: Setting up solver: heightdepth
Loading user function library: [StructuredProjectToPlane]...[StructuredProjectToPlane_Init]
Loading user function library: [StructuredProjectToPlane]...[StructuredProjectToPlane_bulk]
Loading user function library: [StructuredProjectToPlane]...[StructuredProjectToPlane]
AddEquationBasics: Setting up solver: groundedmask
Loading user function library: [ElmerIceSolvers]...[GroundedSolver_Init]
Loading user function library: [ElmerIceSolvers]...[GroundedSolver_bulk]
Loading user function library: [ElmerIceSolvers]...[GroundedSolver]
AddEquationBasics: Creating standard variable: groundedmask
OptimizeBandwidth: ---------------------------------------------------------
OptimizeBandwidth: Computing matrix structure for: groundedmask...done.
OptimizeBandwidth: Half bandwidth without optimization: 346
OptimizeBandwidth: 
OptimizeBandwidth: Bandwidth Optimization ...done.
OptimizeBandwidth: Half bandwidth after optimization: 34
OptimizeBandwidth: ---------------------------------------------------------
AddEquationBasics: Setting up solver: normal vector
Loading user function library: [ElmerIceSolvers]...[ComputeNormalSolver_Init]
Loading user function library: [ElmerIceSolvers]...[ComputeNormalSolver_bulk]
Loading user function library: [ElmerIceSolvers]...[ComputeNormalSolver]
AddEquationBasics: Creating standard variable: normal vector
OptimizeBandwidth: ---------------------------------------------------------
OptimizeBandwidth: Computing matrix structure for: normal vector...done.
OptimizeBandwidth: Half bandwidth without optimization: 728
OptimizeBandwidth: ---------------------------------------------------------
AddEquationBasics: Setting up solver: fw
Loading user function library: [ElmerIceSolvers]...[GetHydrostaticLoads_Init]
Loading user function library: [ElmerIceSolvers]...[GetHydrostaticLoads_bulk]
Loading user function library: [ElmerIceSolvers]...[GetHydrostaticLoads]
AddEquationBasics: Creating standard variable: fw[fwater:3]
OptimizeBandwidth: ---------------------------------------------------------
OptimizeBandwidth: Computing matrix structure for: fw...done.
OptimizeBandwidth: Half bandwidth without optimization: 728
OptimizeBandwidth: 
OptimizeBandwidth: Bandwidth Optimization ...done.
OptimizeBandwidth: Half bandwidth after optimization: 594
OptimizeBandwidth: ---------------------------------------------------------
AddEquationBasics: Setting up solver: navier-stokes
Loading user function library: [FlowSolve]...[FlowSolver_Init]
Loading user function library: [FlowSolve]...[FlowSolver_bulk]
Loading user function library: [FlowSolve]...[FlowSolver]
AddEquationBasics: Creating standard variable: flow solution[velocity:3 pressure:1]
OptimizeBandwidth: ---------------------------------------------------------
OptimizeBandwidth: Computing matrix structure for: navier-stokes...done.
OptimizeBandwidth: Half bandwidth without optimization: 728
OptimizeBandwidth: 
OptimizeBandwidth: Bandwidth Optimization ...done.
OptimizeBandwidth: Half bandwidth after optimization: 594
OptimizeBandwidth: ---------------------------------------------------------
AddEquationBasics: Setting up solver: stresssolver
Loading user function library: [ElmerIceSolvers]...[ComputeDevStress_Init]
Loading user function library: [ElmerIceSolvers]...[ComputeDevStress_bulk]
Loading user function library: [ElmerIceSolvers]...[ComputeDevStress]
AddEquationBasics: Creating standard variable: sij
OptimizeBandwidth: ---------------------------------------------------------
OptimizeBandwidth: Computing matrix structure for: stresssolver...done.
OptimizeBandwidth: Half bandwidth without optimization: 728
OptimizeBandwidth: 
OptimizeBandwidth: Bandwidth Optimization ...done.
OptimizeBandwidth: Half bandwidth after optimization: 594
OptimizeBandwidth: ---------------------------------------------------------
AddEquationBasics: Setting up solver: lower free surface
Loading user function library: [FreeSurfaceSolver]...[FreeSurfaceSolver_Init]
Loading user function library: [FreeSurfaceSolver]...[FreeSurfaceSolver_bulk]
Loading user function library: [FreeSurfaceSolver]...[FreeSurfaceSolver]
AddEquationBasics: Creating standard variable: fs lower
OptimizeBandwidth: ---------------------------------------------------------
OptimizeBandwidth: Computing matrix structure for: lower free surface...done.
OptimizeBandwidth: Half bandwidth without optimization: 346
OptimizeBandwidth: 
OptimizeBandwidth: Bandwidth Optimization ...done.
OptimizeBandwidth: Half bandwidth after optimization: 34
OptimizeBandwidth: ---------------------------------------------------------
AddEquationBasics: Setting up solver: upper free surface
Loading user function library: [FreeSurfaceSolver]...[FreeSurfaceSolver_Init]
Loading user function library: [FreeSurfaceSolver]...[FreeSurfaceSolver_bulk]
Loading user function library: [FreeSurfaceSolver]...[FreeSurfaceSolver]
AddEquationBasics: Creating standard variable: fs upper
OptimizeBandwidth: ---------------------------------------------------------
OptimizeBandwidth: Computing matrix structure for: upper free surface...done.
OptimizeBandwidth: Half bandwidth without optimization: 346
OptimizeBandwidth: 
OptimizeBandwidth: Bandwidth Optimization ...done.
OptimizeBandwidth: Half bandwidth after optimization: 34
OptimizeBandwidth: ---------------------------------------------------------
AddEquationBasics: Setting up solver: resultoutput
Loading user function library: [ResultOutputSolve]...[ResultOutputSolver_Init]
Loading user function library: [ResultOutputSolve]...[ResultOutputSolver_bulk]
Loading user function library: [ResultOutputSolve]...[ResultOutputSolver]
AddEquationBasics: Setting up solver: eigensr
Loading user function library: [ElmerIceSolvers]...[ComputeEigenValues_Init]
Loading user function library: [ElmerIceSolvers]...[ComputeEigenValues_bulk]
Loading user function library: [ElmerIceSolvers]...[ComputeEigenValues]
AddEquationBasics: Creating standard variable: dumy
OptimizeBandwidth: ---------------------------------------------------------
OptimizeBandwidth: Computing matrix structure for: eigensr...done.
OptimizeBandwidth: Half bandwidth without optimization: 728
OptimizeBandwidth: 
OptimizeBandwidth: Bandwidth Optimization ...done.
OptimizeBandwidth: Half bandwidth after optimization: 594
OptimizeBandwidth: ---------------------------------------------------------
Restart: Perfoming global Restart for:
LoadRestartFile: 
LoadRestartFile: --------------------------------------------
LoadRestartFile: Restart for mesh name:
LoadRestartFile: Restart for number of nodes: 5460
LoadRestartFile: Reading data from file: ./tg_s1/mesh/readnc.result.0
ERROR:: LoadRestartFile: =======================================
ERROR:: LoadRestartFile: 
ERROR:: LoadRestartFile: Could not open file "././tg_s1/mesh/readnc.result.0"
ERROR:: LoadRestartFile: No restart possible!
ERROR:: LoadRestartFile: 
ERROR:: LoadRestartFile: =======================================
ERROR:: LoadRestartFile: 
ERROR:: LoadRestartFile: Could not open file "././tg_s1/mesh/readnc.result.22"
ERROR:: LoadRestartFile: No restart possible!
ERROR:: LoadRestartFile: 
ERROR:: LoadRestartFile: =======================================
ERROR:: LoadRestartFile: 
ERROR:: LoadRestartFile: Could not open file "././tg_s1/mesh/readnc.result.18"
ERROR:: LoadRestartFile: No restart possible!
ERROR:: LoadRestartFile: 
ERROR:: LoadRestartFile: =======================================
ERROR:: LoadRestartFile: 
ERROR:: LoadRestartFile: Could not open file "././tg_s1/mesh/readnc.result.31"
ERROR:: LoadRestartFile: No restart possible!
ERROR:: LoadRestartFile: 
ERROR:: LoadRestartFile: =======================================
ERROR:: LoadRestartFile: 
ERROR:: LoadRestartFile: Could not open file "././tg_s1/mesh/readnc.result.37"
ERROR:: LoadRestartFile: No restart possible!
ERROR:: LoadRestartFile: 
ERROR:: LoadRestartFile: =======================================
ERROR:: LoadRestartFile: 
ERROR:: LoadRestartFile: Could not open file "././tg_s1/mesh/readnc.result.41"
ERROR:: LoadRestartFile: No restart possible!
ERROR:: LoadRestartFile: 
ERROR:: LoadRestartFile: =======================================
ERROR:: LoadRestartFile: 
ERROR:: LoadRestartFile: Could not open file "././tg_s1/mesh/readnc.result.42"
ERROR:: LoadRestartFile: No restart possible!
ERROR:: LoadRestartFile: 
ERROR:: LoadRestartFile: =======================================
ERROR:: LoadRestartFile: 
ERROR:: LoadRestartFile: Could not open file "././tg_s1/mesh/readnc.result.101"
ERROR:: LoadRestartFile: No restart possible!
ERROR:: LoadRestartFile: 
ERROR:: LoadRestartFile: =======================================
ERROR:: LoadRestartFile: 
ERROR:: LoadRestartFile: Could not open file "././tg_s1/mesh/readnc.result.10"
ERROR:: LoadRestartFile: No restart possible!
ERROR:: LoadRestartFile: 
ERROR:: LoadRestartFile: =======================================
ERROR:: LoadRestartFile: 
ERROR:: LoadRestartFile: Could not open file "././tg_s1/mesh/readnc.result.60"
ERROR:: LoadRestartFile: No restart possible!
ERROR:: LoadRestartFile: 
ERROR:: LoadRestartFile: =======================================
ERROR:: LoadRestartFile: 
ERROR:: LoadRestartFile: Could not open file "././tg_s1/mesh/readnc.result.62"
ERROR:: LoadRestartFile: No restart possible!
ERROR:: LoadRestartFile: 
ERROR:: LoadRestartFile: =======================================
ERROR:: LoadRestartFile: 
ERROR:: LoadRestartFile: Could not open file "././tg_s1/mesh/readnc.result.90"
ERROR:: LoadRestartFile: No restart possible!
ERROR:: LoadRestartFile: 
ERROR:: LoadRestartFile: =======================================
ERROR:: LoadRestartFile: 
ERROR:: LoadRestartFile: Could not open file "././tg_s1/mesh/readnc.result.105"
ERROR:: LoadRestartFile: No restart possible!
ERROR:: LoadRestartFile: 
ERROR:: LoadRestartFile: =======================================
ERROR:: LoadRestartFile: 
ERROR:: LoadRestartFile: Could not open file "././tg_s1/mesh/readnc.result.4"
ERROR:: LoadRestartFile: No restart possible!
ERROR:: LoadRestartFile: 
ERROR:: LoadRestartFile: =======================================
ERROR:: LoadRestartFile: 
ERROR:: LoadRestartFile: Could not open file "././tg_s1/mesh/readnc.result.5"
ERROR:: LoadRestartFile: No restart possible!
ERROR:: LoadRestartFile: 
ERROR:: LoadRestartFile: =======================================
ERROR:: LoadRestartFile: 
ERROR:: LoadRestartFile: Could not open file "././tg_s1/mesh/readnc.result.6"
ERROR:: LoadRestartFile: No restart possible!
ERROR:: LoadRestartFile: 
ERROR:: LoadRestartFile: =======================================
ERROR:: LoadRestartFile: 
ERROR:: LoadRestartFile: Could not open file "././tg_s1/mesh/readnc.result.7"
ERROR:: LoadRestartFile: No restart possible!
ERROR:: LoadRestartFile: 
ERROR:: LoadRestartFile: =======================================
ERROR:: LoadRestartFile: 
ERROR:: LoadRestartFile: Could not open file "././tg_s1/mesh/readnc.result.15"
ERROR:: LoadRestartFile: No restart possible!
ERROR:: LoadRestartFile: 
ERROR:: LoadRestartFile: =======================================
ERROR:: LoadRestartFile: =======================================
ERROR:: LoadRestartFile: 
ERROR:: LoadRestartFile: Could not open file "././tg_s1/mesh/readnc.result.20"
ERROR:: LoadRestartFile: No restart possible!
ERROR:: LoadRestartFile: 
ERROR:: LoadRestartFile: =======================================
ERROR:: LoadRestartFile: 
ERROR:: LoadRestartFile: Could not open file "././tg_s1/mesh/readnc.result.21"
ERROR:: LoadRestartFile: No restart possible!
ERROR:: LoadRestartFile: 
ERROR:: LoadRestartFile: =======================================
ERROR:: LoadRestartFile: =======================================
ERROR:: LoadRestartFile: 
ERROR:: LoadRestartFile: Could not open file "././tg_s1/mesh/readnc.result.23"
ERROR:: LoadRestartFile: No restart possible!
ERROR:: LoadRestartFile: 
ERROR:: LoadRestartFile: =======================================
ERROR:: LoadRestartFile: 
ERROR:: LoadRestartFile: Could not open file "././tg_s1/mesh/readnc.result.24"
ERROR:: LoadRestartFile: No restart possible!
ERROR:: LoadRestartFile: 
ERROR:: LoadRestartFile: =======================================
ERROR:: LoadRestartFile: =======================================
ERROR:: LoadRestartFile: 
ERROR:: LoadRestartFile: Could not open file "././tg_s1/mesh/readnc.result.25"
ERROR:: LoadRestartFile: No restart possible!
ERROR:: LoadRestartFile: 
ERROR:: LoadRestartFile: =======================================
ERROR:: LoadRestartFile: =======================================
ERROR:: LoadRestartFile: 
ERROR:: LoadRestartFile: Could not open file "././tg_s1/mesh/readnc.result.26"
ERROR:: LoadRestartFile: No restart possible!
ERROR:: LoadRestartFile: 
ERROR:: LoadRestartFile: =======================================
ERROR:: LoadRestartFile: =======================================
ERROR:: LoadRestartFile: 
ERROR:: LoadRestartFile: Could not open file "././tg_s1/mesh/readnc.result.32"
ERROR:: LoadRestartFile: No restart possible!
ERROR:: LoadRestartFile: 
ERROR:: LoadRestartFile: =======================================
ERROR:: LoadRestartFile: =======================================
ERROR:: LoadRestartFile: 
ERROR:: LoadRestartFile: Could not open file "././tg_s1/mesh/readnc.result.33"
ERROR:: LoadRestartFile: No restart possible!
ERROR:: LoadRestartFile: 
ERROR:: LoadRestartFile: =======================================
ERROR:: LoadRestartFile: =======================================
ERROR:: LoadRestartFile: 
ERROR:: LoadRestartFile: Could not open file "././tg_s1/mesh/readnc.result.34"
ERROR:: LoadRestartFile: No restart possible!
ERROR:: LoadRestartFile: 
ERROR:: LoadRestartFile: =======================================
ERROR:: LoadRestartFile: =======================================
ERROR:: LoadRestartFile: 
ERROR:: LoadRestartFile: Could not open file "././tg_s1/mesh/readnc.result.36"
ERROR:: LoadRestartFile: No restart possible!
ERROR:: LoadRestartFile: 
ERROR:: LoadRestartFile: =======================================
ERROR:: LoadRestartFile: =======================================
ERROR:: LoadRestartFile: 
ERROR:: LoadRestartFile: Could not open file "././tg_s1/mesh/readnc.result.38"
ERROR:: LoadRestartFile: No restart possible!
ERROR:: LoadRestartFile: 
ERROR:: LoadRestartFile: =======================================
ERROR:: LoadRestartFile: =======================================
ERROR:: LoadRestartFile: 
ERROR:: LoadRestartFile: Could not open file "././tg_s1/mesh/readnc.result.39"
ERROR:: LoadRestartFile: No restart possible!
ERROR:: LoadRestartFile: 
ERROR:: LoadRestartFile: =======================================
ERROR:: LoadRestartFile: =======================================
ERROR:: LoadRestartFile: 
ERROR:: LoadRestartFile: Could not open file "././tg_s1/mesh/readnc.result.45"
ERROR:: LoadRestartFile: No restart possible!
ERROR:: LoadRestartFile: 
ERROR:: LoadRestartFile: =======================================
ERROR:: LoadRestartFile: =======================================
ERROR:: LoadRestartFile: 
ERROR:: LoadRestartFile: Could not open file "././tg_s1/mesh/readnc.result.46"
ERROR:: LoadRestartFile: No restart possible!
ERROR:: LoadRestartFile: 
ERROR:: LoadRestartFile: =======================================
ERROR:: LoadRestartFile: =======================================
ERROR:: LoadRestartFile: =======================================
ERROR:: LoadRestartFile: 
ERROR:: LoadRestartFile: Could not open file "././tg_s1/mesh/readnc.result.1"
ERROR:: LoadRestartFile: No restart possible!
ERROR:: LoadRestartFile: 
ERROR:: LoadRestartFile: =======================================
ERROR:: LoadRestartFile: =======================================
ERROR:: LoadRestartFile: 
ERROR:: LoadRestartFile: Could not open file "././tg_s1/mesh/readnc.result.2"
ERROR:: LoadRestartFile: No restart possible!
ERROR:: LoadRestartFile: 
ERROR:: LoadRestartFile: =======================================
ERROR:: LoadRestartFile: =======================================
ERROR:: LoadRestartFile: 
ERROR:: LoadRestartFile: Could not open file "././tg_s1/mesh/readnc.result.3"
ERROR:: LoadRestartFile: No restart possible!
ERROR:: LoadRestartFile: 
ERROR:: LoadRestartFile: =======================================
ERROR:: LoadRestartFile: =======================================
ERROR:: LoadRestartFile: =======================================
ERROR:: LoadRestartFile: =======================================
ERROR:: LoadRestartFile: =======================================
ERROR:: LoadRestartFile: =======================================
ERROR:: LoadRestartFile: =======================================
ERROR:: LoadRestartFile: 
ERROR:: LoadRestartFile: Could not open file "././tg_s1/mesh/readnc.result.13"
ERROR:: LoadRestartFile: No restart possible!
ERROR:: LoadRestartFile: 
ERROR:: LoadRestartFile: =======================================
ERROR:: LoadRestartFile: =======================================
ERROR:: LoadRestartFile: 
ERROR:: LoadRestartFile: Could not open file "././tg_s1/mesh/readnc.result.14"
ERROR:: LoadRestartFile: No restart possible!
ERROR:: LoadRestartFile: 
ERROR:: LoadRestartFile: =======================================
ERROR:: LoadRestartFile: =======================================
ERROR:: LoadRestartFile: =======================================
ERROR:: LoadRestartFile: =======================================
ERROR:: LoadRestartFile: =======================================
ERROR:: LoadRestartFile: =======================================
ERROR:: LoadRestartFile: 
ERROR:: LoadRestartFile: Could not open file "././tg_s1/mesh/readnc.result.28"
ERROR:: LoadRestartFile: No restart possible!
ERROR:: LoadRestartFile: 
ERROR:: LoadRestartFile: =======================================
ERROR:: LoadRestartFile: =======================================
ERROR:: LoadRestartFile: =======================================
ERROR:: LoadRestartFile: 
ERROR:: LoadRestartFile: Could not open file "././tg_s1/mesh/readnc.result.35"
ERROR:: LoadRestartFile: No restart possible!
ERROR:: LoadRestartFile: 
ERROR:: LoadRestartFile: =======================================
ERROR:: LoadRestartFile: =======================================
ERROR:: LoadRestartFile: =======================================
ERROR:: LoadRestartFile: =======================================
ERROR:: LoadRestartFile: =======================================
ERROR:: LoadRestartFile: 
ERROR:: LoadRestartFile: Could not open file "././tg_s1/mesh/readnc.result.47"
ERROR:: LoadRestartFile: No restart possible!
ERROR:: LoadRestartFile: 
ERROR:: LoadRestartFile: =======================================
ERROR:: LoadRestartFile: =======================================
ERROR:: LoadRestartFile: 
ERROR:: LoadRestartFile: Could not open file "././tg_s1/mesh/readnc.result.48"
ERROR:: LoadRestartFile: No restart possible!
ERROR:: LoadRestartFile: 
ERROR:: LoadRestartFile: =======================================
ERROR:: LoadRestartFile: =======================================
ERROR:: LoadRestartFile: 
ERROR:: LoadRestartFile: Could not open file "././tg_s1/mesh/readnc.result.49"
ERROR:: LoadRestartFile: No restart possible!
ERROR:: LoadRestartFile: 
ERROR:: LoadRestartFile: =======================================
ERROR:: LoadRestartFile: =======================================
ERROR:: LoadRestartFile: 
ERROR:: LoadRestartFile: Could not open file "././tg_s1/mesh/readnc.result.51"
ERROR:: LoadRestartFile: No restart possible!
ERROR:: LoadRestartFile: 
ERROR:: LoadRestartFile: =======================================
ERROR:: LoadRestartFile: =======================================
ERROR:: LoadRestartFile: 
ERROR:: LoadRestartFile: Could not open file "././tg_s1/mesh/readnc.result.56"
ERROR:: LoadRestartFile: No restart possible!
ERROR:: LoadRestartFile: 
ERROR:: LoadRestartFile: =======================================
ERROR:: LoadRestartFile: =======================================
ERROR:: LoadRestartFile: 
ERROR:: LoadRestartFile: Could not open file "././tg_s1/mesh/readnc.result.58"
ERROR:: LoadRestartFile: No restart possible!
ERROR:: LoadRestartFile: 
ERROR:: LoadRestartFile: =======================================
ERROR:: LoadRestartFile: =======================================
ERROR:: LoadRestartFile: 
ERROR:: LoadRestartFile: Could not open file "././tg_s1/mesh/readnc.result.59"
ERROR:: LoadRestartFile: No restart possible!
ERROR:: LoadRestartFile: 
ERROR:: LoadRestartFile: =======================================
ERROR:: LoadRestartFile: =======================================
ERROR:: LoadRestartFile: =======================================
ERROR:: LoadRestartFile: =======================================
ERROR:: LoadRestartFile: 
ERROR:: LoadRestartFile: Could not open file "././tg_s1/mesh/readnc.result.81"
ERROR:: LoadRestartFile: No restart possible!
ERROR:: LoadRestartFile: 
ERROR:: LoadRestartFile: =======================================
ERROR:: LoadRestartFile: =======================================
ERROR:: LoadRestartFile: 
ERROR:: LoadRestartFile: Could not open file "././tg_s1/mesh/readnc.result.83"
ERROR:: LoadRestartFile: No restart possible!
ERROR:: LoadRestartFile: 
ERROR:: LoadRestartFile: =======================================
ERROR:: LoadRestartFile: =======================================
ERROR:: LoadRestartFile: 
ERROR:: LoadRestartFile: Could not open file "././tg_s1/mesh/readnc.result.89"
ERROR:: LoadRestartFile: No restart possible!
ERROR:: LoadRestartFile: 
ERROR:: LoadRestartFile: =======================================
ERROR:: LoadRestartFile: =======================================
ERROR:: LoadRestartFile: =======================================
ERROR:: LoadRestartFile: 
ERROR:: LoadRestartFile: Could not open file "././tg_s1/mesh/readnc.result.91"
ERROR:: LoadRestartFile: No restart possible!
ERROR:: LoadRestartFile: 
ERROR:: LoadRestartFile: =======================================
ERROR:: LoadRestartFile: =======================================
ERROR:: LoadRestartFile: 
ERROR:: LoadRestartFile: Could not open file "././tg_s1/mesh/readnc.result.94"
ERROR:: LoadRestartFile: No restart possible!
ERROR:: LoadRestartFile: 
ERROR:: LoadRestartFile: =======================================
ERROR:: LoadRestartFile: =======================================
ERROR:: LoadRestartFile: 
ERROR:: LoadRestartFile: Could not open file "././tg_s1/mesh/readnc.result.96"
ERROR:: LoadRestartFile: No restart possible!
ERROR:: LoadRestartFile: 
ERROR:: LoadRestartFile: =======================================
ERROR:: LoadRestartFile: =======================================
ERROR:: LoadRestartFile: 
ERROR:: LoadRestartFile: Could not open file "././tg_s1/mesh/readnc.result.99"
ERROR:: LoadRestartFile: No restart possible!
ERROR:: LoadRestartFile: 
ERROR:: LoadRestartFile: =======================================
ERROR:: LoadRestartFile: =======================================
ERROR:: LoadRestartFile: =======================================
ERROR:: LoadRestartFile: 
ERROR:: LoadRestartFile: Could not open file "././tg_s1/mesh/readnc.result.104"
ERROR:: LoadRestartFile: No restart possible!
ERROR:: LoadRestartFile: 
ERROR:: LoadRestartFile: =======================================
ERROR:: LoadRestartFile: =======================================
ERROR:: LoadRestartFile: =======================================
ERROR:: LoadRestartFile: 
ERROR:: LoadRestartFile: Could not open file "././tg_s1/mesh/readnc.result.106"
ERROR:: LoadRestartFile: No restart possible!
ERROR:: LoadRestartFile: 
ERROR:: LoadRestartFile: =======================================
ERROR:: LoadRestartFile: =======================================
ERROR:: LoadRestartFile: 
ERROR:: LoadRestartFile: Could not open file "././tg_s1/mesh/readnc.result.107"
ERROR:: LoadRestartFile: No restart possible!
ERROR:: LoadRestartFile: 
ERROR:: LoadRestartFile: =======================================
ERROR:: LoadRestartFile: =======================================
ERROR:: LoadRestartFile: 
ERROR:: LoadRestartFile: Could not open file "././tg_s1/mesh/readnc.result.109"
ERROR:: LoadRestartFile: No restart possible!
ERROR:: LoadRestartFile: 
ERROR:: LoadRestartFile: =======================================
ERROR:: LoadRestartFile: =======================================
ERROR:: LoadRestartFile: 
ERROR:: LoadRestartFile: Could not open file "././tg_s1/mesh/readnc.result.110"
ERROR:: LoadRestartFile: No restart possible!
ERROR:: LoadRestartFile: 
ERROR:: LoadRestartFile: =======================================
ERROR:: LoadRestartFile: =======================================
ERROR:: LoadRestartFile: 
ERROR:: LoadRestartFile: Could not open file "././tg_s1/mesh/readnc.result.112"
ERROR:: LoadRestartFile: No restart possible!
ERROR:: LoadRestartFile: 
ERROR:: LoadRestartFile: =======================================
ERROR:: LoadRestartFile: =======================================
ERROR:: LoadRestartFile: 
ERROR:: LoadRestartFile: Could not open file "././tg_s1/mesh/readnc.result.113"
ERROR:: LoadRestartFile: No restart possible!
ERROR:: LoadRestartFile: 
ERROR:: LoadRestartFile: =======================================
ERROR:: LoadRestartFile: =======================================
ERROR:: LoadRestartFile: 
ERROR:: LoadRestartFile: Could not open file "././tg_s1/mesh/readnc.result.114"
ERROR:: LoadRestartFile: No restart possible!
ERROR:: LoadRestartFile: 
ERROR:: LoadRestartFile: =======================================
ERROR:: LoadRestartFile: =======================================
ERROR:: LoadRestartFile: 
ERROR:: LoadRestartFile: Could not open file "././tg_s1/mesh/readnc.result.115"
ERROR:: LoadRestartFile: No restart possible!
ERROR:: LoadRestartFile: 
ERROR:: LoadRestartFile: =======================================
ERROR:: LoadRestartFile: =======================================
ERROR:: LoadRestartFile: 
ERROR:: LoadRestartFile: Could not open file "././tg_s1/mesh/readnc.result.120"
ERROR:: LoadRestartFile: No restart possible!
ERROR:: LoadRestartFile: 
ERROR:: LoadRestartFile: =======================================
ERROR:: LoadRestartFile: =======================================
ERROR:: LoadRestartFile: 
ERROR:: LoadRestartFile: Could not open file "././tg_s1/mesh/readnc.result.121"
ERROR:: LoadRestartFile: No restart possible!
ERROR:: LoadRestartFile: 
ERROR:: LoadRestartFile: =======================================
ERROR:: LoadRestartFile: =======================================
ERROR:: LoadRestartFile: 
ERROR:: LoadRestartFile: Could not open file "././tg_s1/mesh/readnc.result.124"
ERROR:: LoadRestartFile: No restart possible!
ERROR:: LoadRestartFile: 
ERROR:: LoadRestartFile: =======================================
ERROR:: LoadRestartFile: =======================================
ERROR:: LoadRestartFile: 
ERROR:: LoadRestartFile: Could not open file "././tg_s1/mesh/readnc.result.125"
ERROR:: LoadRestartFile: No restart possible!
ERROR:: LoadRestartFile: 
ERROR:: LoadRestartFile: =======================================
ERROR:: LoadRestartFile: =======================================
ERROR:: LoadRestartFile: 
ERROR:: LoadRestartFile: Could not open file "././tg_s1/mesh/readnc.result.126"
ERROR:: LoadRestartFile: No restart possible!
ERROR:: LoadRestartFile: 
ERROR:: LoadRestartFile: =======================================
ERROR:: LoadRestartFile: =======================================
ERROR:: LoadRestartFile: 
ERROR:: LoadRestartFile: Could not open file "././tg_s1/mesh/readnc.result.127"
ERROR:: LoadRestartFile: No restart possible!
ERROR:: LoadRestartFile: 
ERROR:: LoadRestartFile: =======================================
ERROR:: LoadRestartFile: =======================================
ERROR:: LoadRestartFile: 
ERROR:: LoadRestartFile: Could not open file "././tg_s1/mesh/readnc.result.8"
ERROR:: LoadRestartFile: No restart possible!
ERROR:: LoadRestartFile: 
ERROR:: LoadRestartFile: =======================================
ERROR:: LoadRestartFile: =======================================
ERROR:: LoadRestartFile: 
ERROR:: LoadRestartFile: Could not open file "././tg_s1/mesh/readnc.result.9"
ERROR:: LoadRestartFile: No restart possible!
ERROR:: LoadRestartFile: 
ERROR:: LoadRestartFile: =======================================
ERROR:: LoadRestartFile: =======================================
ERROR:: LoadRestartFile: 
ERROR:: LoadRestartFile: Could not open file "././tg_s1/mesh/readnc.result.11"
ERROR:: LoadRestartFile: No restart possible!
ERROR:: LoadRestartFile: 
ERROR:: LoadRestartFile: =======================================
ERROR:: LoadRestartFile: =======================================
ERROR:: LoadRestartFile: 
ERROR:: LoadRestartFile: Could not open file "././tg_s1/mesh/readnc.result.12"
ERROR:: LoadRestartFile: No restart possible!
ERROR:: LoadRestartFile: 
ERROR:: LoadRestartFile: =======================================
ERROR:: LoadRestartFile: =======================================
ERROR:: LoadRestartFile: 
ERROR:: LoadRestartFile: Could not open file "././tg_s1/mesh/readnc.result.16"
ERROR:: LoadRestartFile: No restart possible!
ERROR:: LoadRestartFile: 
ERROR:: LoadRestartFile: =======================================
ERROR:: LoadRestartFile: =======================================
ERROR:: LoadRestartFile: 
ERROR:: LoadRestartFile: Could not open file "././tg_s1/mesh/readnc.result.17"
ERROR:: LoadRestartFile: No restart possible!
ERROR:: LoadRestartFile: 
ERROR:: LoadRestartFile: =======================================
ERROR:: LoadRestartFile: =======================================
ERROR:: LoadRestartFile: 
ERROR:: LoadRestartFile: Could not open file "././tg_s1/mesh/readnc.result.19"
ERROR:: LoadRestartFile: No restart possible!
ERROR:: LoadRestartFile: 
ERROR:: LoadRestartFile: =======================================
ERROR:: LoadRestartFile: =======================================
ERROR:: LoadRestartFile: 
ERROR:: LoadRestartFile: Could not open file "././tg_s1/mesh/readnc.result.27"
ERROR:: LoadRestartFile: No restart possible!
ERROR:: LoadRestartFile: 
ERROR:: LoadRestartFile: =======================================
ERROR:: LoadRestartFile: =======================================
ERROR:: LoadRestartFile: 
ERROR:: LoadRestartFile: Could not open file "././tg_s1/mesh/readnc.result.29"
ERROR:: LoadRestartFile: No restart possible!
ERROR:: LoadRestartFile: 
ERROR:: LoadRestartFile: =======================================
ERROR:: LoadRestartFile: =======================================
ERROR:: LoadRestartFile: 
ERROR:: LoadRestartFile: Could not open file "././tg_s1/mesh/readnc.result.30"
ERROR:: LoadRestartFile: No restart possible!
ERROR:: LoadRestartFile: 
ERROR:: LoadRestartFile: =======================================
ERROR:: LoadRestartFile: =======================================
ERROR:: LoadRestartFile: 
ERROR:: LoadRestartFile: Could not open file "././tg_s1/mesh/readnc.result.40"
ERROR:: LoadRestartFile: No restart possible!
ERROR:: LoadRestartFile: 
ERROR:: LoadRestartFile: =======================================
ERROR:: LoadRestartFile: =======================================
ERROR:: LoadRestartFile: 
ERROR:: LoadRestartFile: Could not open file "././tg_s1/mesh/readnc.result.43"
ERROR:: LoadRestartFile: No restart possible!
ERROR:: LoadRestartFile: 
ERROR:: LoadRestartFile: =======================================
ERROR:: LoadRestartFile: =======================================
ERROR:: LoadRestartFile: 
ERROR:: LoadRestartFile: Could not open file "././tg_s1/mesh/readnc.result.44"
ERROR:: LoadRestartFile: No restart possible!
ERROR:: LoadRestartFile: 
ERROR:: LoadRestartFile: =======================================
ERROR:: LoadRestartFile: =======================================
ERROR:: LoadRestartFile: 
ERROR:: LoadRestartFile: Could not open file "././tg_s1/mesh/readnc.result.50"
ERROR:: LoadRestartFile: No restart possible!
ERROR:: LoadRestartFile: 
ERROR:: LoadRestartFile: =======================================
ERROR:: LoadRestartFile: =======================================
ERROR:: LoadRestartFile: 
ERROR:: LoadRestartFile: Could not open file "././tg_s1/mesh/readnc.result.52"
ERROR:: LoadRestartFile: No restart possible!
ERROR:: LoadRestartFile: 
ERROR:: LoadRestartFile: =======================================
ERROR:: LoadRestartFile: =======================================
ERROR:: LoadRestartFile: 
ERROR:: LoadRestartFile: Could not open file "././tg_s1/mesh/readnc.result.53"
ERROR:: LoadRestartFile: No restart possible!
ERROR:: LoadRestartFile: 
ERROR:: LoadRestartFile: =======================================
ERROR:: LoadRestartFile: =======================================
ERROR:: LoadRestartFile: 
ERROR:: LoadRestartFile: Could not open file "././tg_s1/mesh/readnc.result.54"
ERROR:: LoadRestartFile: No restart possible!
ERROR:: LoadRestartFile: 
ERROR:: LoadRestartFile: =======================================
ERROR:: LoadRestartFile: =======================================
ERROR:: LoadRestartFile: 
ERROR:: LoadRestartFile: Could not open file "././tg_s1/mesh/readnc.result.55"
ERROR:: LoadRestartFile: No restart possible!
ERROR:: LoadRestartFile: 
ERROR:: LoadRestartFile: =======================================
ERROR:: LoadRestartFile: =======================================
ERROR:: LoadRestartFile: 
ERROR:: LoadRestartFile: Could not open file "././tg_s1/mesh/readnc.result.57"
ERROR:: LoadRestartFile: No restart possible!
ERROR:: LoadRestartFile: 
ERROR:: LoadRestartFile: =======================================
ERROR:: LoadRestartFile: =======================================
ERROR:: LoadRestartFile: 
ERROR:: LoadRestartFile: Could not open file "././tg_s1/mesh/readnc.result.61"
ERROR:: LoadRestartFile: No restart possible!
ERROR:: LoadRestartFile: 
ERROR:: LoadRestartFile: =======================================
ERROR:: LoadRestartFile: =======================================
ERROR:: LoadRestartFile: 
ERROR:: LoadRestartFile: Could not open file "././tg_s1/mesh/readnc.result.63"
ERROR:: LoadRestartFile: No restart possible!
ERROR:: LoadRestartFile: 
ERROR:: LoadRestartFile: =======================================
ERROR:: LoadRestartFile: =======================================
ERROR:: LoadRestartFile: 
ERROR:: LoadRestartFile: Could not open file "././tg_s1/mesh/readnc.result.64"
ERROR:: LoadRestartFile: No restart possible!
ERROR:: LoadRestartFile: 
ERROR:: LoadRestartFile: =======================================
ERROR:: LoadRestartFile: =======================================
ERROR:: LoadRestartFile: 
ERROR:: LoadRestartFile: Could not open file "././tg_s1/mesh/readnc.result.65"
ERROR:: LoadRestartFile: No restart possible!
ERROR:: LoadRestartFile: 
ERROR:: LoadRestartFile: =======================================
ERROR:: LoadRestartFile: =======================================
ERROR:: LoadRestartFile: 
ERROR:: LoadRestartFile: Could not open file "././tg_s1/mesh/readnc.result.66"
ERROR:: LoadRestartFile: No restart possible!
ERROR:: LoadRestartFile: 
ERROR:: LoadRestartFile: =======================================
ERROR:: LoadRestartFile: =======================================
ERROR:: LoadRestartFile: 
ERROR:: LoadRestartFile: Could not open file "././tg_s1/mesh/readnc.result.67"
ERROR:: LoadRestartFile: No restart possible!
ERROR:: LoadRestartFile: 
ERROR:: LoadRestartFile: =======================================
ERROR:: LoadRestartFile: =======================================
ERROR:: LoadRestartFile: 
ERROR:: LoadRestartFile: Could not open file "././tg_s1/mesh/readnc.result.68"
ERROR:: LoadRestartFile: No restart possible!
ERROR:: LoadRestartFile: 
ERROR:: LoadRestartFile: =======================================
ERROR:: LoadRestartFile: =======================================
ERROR:: LoadRestartFile: 
ERROR:: LoadRestartFile: Could not open file "././tg_s1/mesh/readnc.result.69"
ERROR:: LoadRestartFile: No restart possible!
ERROR:: LoadRestartFile: 
ERROR:: LoadRestartFile: =======================================
ERROR:: LoadRestartFile: =======================================
ERROR:: LoadRestartFile: 
ERROR:: LoadRestartFile: Could not open file "././tg_s1/mesh/readnc.result.70"
ERROR:: LoadRestartFile: No restart possible!
ERROR:: LoadRestartFile: 
ERROR:: LoadRestartFile: =======================================
ERROR:: LoadRestartFile: =======================================
ERROR:: LoadRestartFile: 
ERROR:: LoadRestartFile: Could not open file "././tg_s1/mesh/readnc.result.71"
ERROR:: LoadRestartFile: No restart possible!
ERROR:: LoadRestartFile: 
ERROR:: LoadRestartFile: =======================================
ERROR:: LoadRestartFile: =======================================
ERROR:: LoadRestartFile: 
ERROR:: LoadRestartFile: Could not open file "././tg_s1/mesh/readnc.result.72"
ERROR:: LoadRestartFile: No restart possible!
ERROR:: LoadRestartFile: 
ERROR:: LoadRestartFile: =======================================
ERROR:: LoadRestartFile: =======================================
ERROR:: LoadRestartFile: 
ERROR:: LoadRestartFile: Could not open file "././tg_s1/mesh/readnc.result.73"
ERROR:: LoadRestartFile: No restart possible!
ERROR:: LoadRestartFile: 
ERROR:: LoadRestartFile: =======================================
ERROR:: LoadRestartFile: =======================================
ERROR:: LoadRestartFile: 
ERROR:: LoadRestartFile: Could not open file "././tg_s1/mesh/readnc.result.74"
ERROR:: LoadRestartFile: No restart possible!
ERROR:: LoadRestartFile: 
ERROR:: LoadRestartFile: =======================================
ERROR:: LoadRestartFile: =======================================
ERROR:: LoadRestartFile: 
ERROR:: LoadRestartFile: Could not open file "././tg_s1/mesh/readnc.result.75"
ERROR:: LoadRestartFile: No restart possible!
ERROR:: LoadRestartFile: 
ERROR:: LoadRestartFile: =======================================
ERROR:: LoadRestartFile: =======================================
ERROR:: LoadRestartFile: 
ERROR:: LoadRestartFile: Could not open file "././tg_s1/mesh/readnc.result.76"
ERROR:: LoadRestartFile: No restart possible!
ERROR:: LoadRestartFile: 
ERROR:: LoadRestartFile: =======================================
ERROR:: LoadRestartFile: =======================================
ERROR:: LoadRestartFile: 
ERROR:: LoadRestartFile: Could not open file "././tg_s1/mesh/readnc.result.77"
ERROR:: LoadRestartFile: No restart possible!
ERROR:: LoadRestartFile: 
ERROR:: LoadRestartFile: =======================================
ERROR:: LoadRestartFile: =======================================
ERROR:: LoadRestartFile: 
ERROR:: LoadRestartFile: Could not open file "././tg_s1/mesh/readnc.result.78"
ERROR:: LoadRestartFile: No restart possible!
ERROR:: LoadRestartFile: 
ERROR:: LoadRestartFile: =======================================
ERROR:: LoadRestartFile: =======================================
ERROR:: LoadRestartFile: 
ERROR:: LoadRestartFile: Could not open file "././tg_s1/mesh/readnc.result.79"
ERROR:: LoadRestartFile: No restart possible!
ERROR:: LoadRestartFile: 
ERROR:: LoadRestartFile: =======================================
ERROR:: LoadRestartFile: =======================================
ERROR:: LoadRestartFile: 
ERROR:: LoadRestartFile: Could not open file "././tg_s1/mesh/readnc.result.80"
ERROR:: LoadRestartFile: No restart possible!
ERROR:: LoadRestartFile: 
ERROR:: LoadRestartFile: =======================================
ERROR:: LoadRestartFile: =======================================
ERROR:: LoadRestartFile: 
ERROR:: LoadRestartFile: Could not open file "././tg_s1/mesh/readnc.result.82"
ERROR:: LoadRestartFile: No restart possible!
ERROR:: LoadRestartFile: 
ERROR:: LoadRestartFile: =======================================
ERROR:: LoadRestartFile: =======================================
ERROR:: LoadRestartFile: 
ERROR:: LoadRestartFile: Could not open file "././tg_s1/mesh/readnc.result.84"
ERROR:: LoadRestartFile: No restart possible!
ERROR:: LoadRestartFile: 
ERROR:: LoadRestartFile: =======================================
ERROR:: LoadRestartFile: =======================================
ERROR:: LoadRestartFile: 
ERROR:: LoadRestartFile: Could not open file "././tg_s1/mesh/readnc.result.85"
ERROR:: LoadRestartFile: No restart possible!
ERROR:: LoadRestartFile: 
ERROR:: LoadRestartFile: =======================================
ERROR:: LoadRestartFile: =======================================
ERROR:: LoadRestartFile: 
ERROR:: LoadRestartFile: Could not open file "././tg_s1/mesh/readnc.result.86"
ERROR:: LoadRestartFile: No restart possible!
ERROR:: LoadRestartFile: 
ERROR:: LoadRestartFile: =======================================
ERROR:: LoadRestartFile: =======================================
ERROR:: LoadRestartFile: 
ERROR:: LoadRestartFile: Could not open file "././tg_s1/mesh/readnc.result.87"
ERROR:: LoadRestartFile: No restart possible!
ERROR:: LoadRestartFile: 
ERROR:: LoadRestartFile: =======================================
ERROR:: LoadRestartFile: =======================================
ERROR:: LoadRestartFile: 
ERROR:: LoadRestartFile: Could not open file "././tg_s1/mesh/readnc.result.88"
ERROR:: LoadRestartFile: No restart possible!
ERROR:: LoadRestartFile: 
ERROR:: LoadRestartFile: =======================================
ERROR:: LoadRestartFile: =======================================
ERROR:: LoadRestartFile: 
ERROR:: LoadRestartFile: Could not open file "././tg_s1/mesh/readnc.result.92"
ERROR:: LoadRestartFile: No restart possible!
ERROR:: LoadRestartFile: 
ERROR:: LoadRestartFile: =======================================
ERROR:: LoadRestartFile: =======================================
ERROR:: LoadRestartFile: 
ERROR:: LoadRestartFile: Could not open file "././tg_s1/mesh/readnc.result.93"
ERROR:: LoadRestartFile: No restart possible!
ERROR:: LoadRestartFile: 
ERROR:: LoadRestartFile: =======================================
ERROR:: LoadRestartFile: =======================================
ERROR:: LoadRestartFile: 
ERROR:: LoadRestartFile: Could not open file "././tg_s1/mesh/readnc.result.95"
ERROR:: LoadRestartFile: No restart possible!
ERROR:: LoadRestartFile: 
ERROR:: LoadRestartFile: =======================================
ERROR:: LoadRestartFile: =======================================
ERROR:: LoadRestartFile: 
ERROR:: LoadRestartFile: Could not open file "././tg_s1/mesh/readnc.result.97"
ERROR:: LoadRestartFile: No restart possible!
ERROR:: LoadRestartFile: 
ERROR:: LoadRestartFile: =======================================
ERROR:: LoadRestartFile: =======================================
ERROR:: LoadRestartFile: 
ERROR:: LoadRestartFile: Could not open file "././tg_s1/mesh/readnc.result.98"
ERROR:: LoadRestartFile: No restart possible!
ERROR:: LoadRestartFile: 
ERROR:: LoadRestartFile: =======================================
ERROR:: LoadRestartFile: =======================================
ERROR:: LoadRestartFile: 
ERROR:: LoadRestartFile: Could not open file "././tg_s1/mesh/readnc.result.100"
ERROR:: LoadRestartFile: No restart possible!
ERROR:: LoadRestartFile: 
ERROR:: LoadRestartFile: =======================================
ERROR:: LoadRestartFile: =======================================
ERROR:: LoadRestartFile: 
ERROR:: LoadRestartFile: Could not open file "././tg_s1/mesh/readnc.result.102"
ERROR:: LoadRestartFile: No restart possible!
ERROR:: LoadRestartFile: 
ERROR:: LoadRestartFile: =======================================
ERROR:: LoadRestartFile: =======================================
ERROR:: LoadRestartFile: 
ERROR:: LoadRestartFile: Could not open file "././tg_s1/mesh/readnc.result.103"
ERROR:: LoadRestartFile: No restart possible!
ERROR:: LoadRestartFile: 
ERROR:: LoadRestartFile: =======================================
ERROR:: LoadRestartFile: =======================================
ERROR:: LoadRestartFile: 
ERROR:: LoadRestartFile: Could not open file "././tg_s1/mesh/readnc.result.108"
ERROR:: LoadRestartFile: No restart possible!
ERROR:: LoadRestartFile: 
ERROR:: LoadRestartFile: =======================================
ERROR:: LoadRestartFile: =======================================
ERROR:: LoadRestartFile: 
ERROR:: LoadRestartFile: Could not open file "././tg_s1/mesh/readnc.result.111"
ERROR:: LoadRestartFile: No restart possible!
ERROR:: LoadRestartFile: 
ERROR:: LoadRestartFile: =======================================
ERROR:: LoadRestartFile: =======================================
ERROR:: LoadRestartFile: 
ERROR:: LoadRestartFile: Could not open file "././tg_s1/mesh/readnc.result.116"
ERROR:: LoadRestartFile: No restart possible!
ERROR:: LoadRestartFile: 
ERROR:: LoadRestartFile: =======================================
ERROR:: LoadRestartFile: =======================================
ERROR:: LoadRestartFile: 
ERROR:: LoadRestartFile: Could not open file "././tg_s1/mesh/readnc.result.117"
ERROR:: LoadRestartFile: No restart possible!
ERROR:: LoadRestartFile: 
ERROR:: LoadRestartFile: =======================================
ERROR:: LoadRestartFile: =======================================
ERROR:: LoadRestartFile: 
ERROR:: LoadRestartFile: Could not open file "././tg_s1/mesh/readnc.result.118"
ERROR:: LoadRestartFile: No restart possible!
ERROR:: LoadRestartFile: 
ERROR:: LoadRestartFile: =======================================
ERROR:: LoadRestartFile: =======================================
ERROR:: LoadRestartFile: 
ERROR:: LoadRestartFile: Could not open file "././tg_s1/mesh/readnc.result.119"
ERROR:: LoadRestartFile: No restart possible!
ERROR:: LoadRestartFile: 
ERROR:: LoadRestartFile: =======================================
ERROR:: LoadRestartFile: =======================================
ERROR:: LoadRestartFile: 
ERROR:: LoadRestartFile: Could not open file "././tg_s1/mesh/readnc.result.122"
ERROR:: LoadRestartFile: No restart possible!
ERROR:: LoadRestartFile: 
ERROR:: LoadRestartFile: =======================================
ERROR:: LoadRestartFile: =======================================
ERROR:: LoadRestartFile: 
ERROR:: LoadRestartFile: Could not open file "././tg_s1/mesh/readnc.result.123"
ERROR:: LoadRestartFile: No restart possible!
ERROR:: LoadRestartFile: 
ERROR:: LoadRestartFile: =======================================
