ELMER SOLVER (v 8.4) STARTED AT: 2020/10/14 16:36:36
ELMER SOLVER (v 8.4) STARTED AT: 2020/10/14 16:36:36
ELMER SOLVER (v 8.4) STARTED AT: 2020/10/14 16:36:36
ELMER SOLVER (v 8.4) STARTED AT: 2020/10/14 16:36:36
ELMER SOLVER (v 8.4) STARTED AT: 2020/10/14 16:36:36
ELMER SOLVER (v 8.4) STARTED AT: 2020/10/14 16:36:36
ELMER SOLVER (v 8.4) STARTED AT: 2020/10/14 16:36:36
ELMER SOLVER (v 8.4) STARTED AT: 2020/10/14 16:36:36
ELMER SOLVER (v 8.4) STARTED AT: 2020/10/14 16:36:36
ELMER SOLVER (v 8.4) STARTED AT: 2020/10/14 16:36:36
ELMER SOLVER (v 8.4) STARTED AT: 2020/10/14 16:36:36
ELMER SOLVER (v 8.4) STARTED AT: 2020/10/14 16:36:36
ELMER SOLVER (v 8.4) STARTED AT: 2020/10/14 16:36:36
ELMER SOLVER (v 8.4) STARTED AT: 2020/10/14 16:36:36
ELMER SOLVER (v 8.4) STARTED AT: 2020/10/14 16:36:36
ELMER SOLVER (v 8.4) STARTED AT: 2020/10/14 16:36:36
ELMER SOLVER (v 8.4) STARTED AT: 2020/10/14 16:36:36
ELMER SOLVER (v 8.4) STARTED AT: 2020/10/14 16:36:36

ELMER SOLVER (v 8.4) STARTED AT: 2020/10/14 16:36:36
ELMER SOLVER (v 8.4) STARTED AT: 2020/10/14 16:36:36
ELMER SOLVER (v 8.4) STARTED AT: 2020/10/14 16:36:36
ELMER SOLVER (v 8.4) STARTED AT: 2020/10/14 16:36:36
ELMER SOLVER (v 8.4) STARTED AT: 2020/10/14 16:36:36
ELMER SOLVER (v 8.4) STARTED AT: 2020/10/14 16:36:36
ELMER SOLVER (v 8.4) STARTED AT: 2020/10/14 16:36:36
ELMER SOLVER (v 8.4) STARTED AT: 2020/10/14 16:36:36
ELMER SOLVER (v 8.4) STARTED AT: 2020/10/14 16:36:36
ELMER SOLVER (v 8.4) STARTED AT: 2020/10/14 16:36:36
ELMER SOLVER (v 8.4) STARTED AT: 2020/10/14 16:36:36
ELMER SOLVER (v 8.4) STARTED AT: 2020/10/14 16:36:36
ELMER SOLVER (v 8.4) STARTED AT: 2020/10/14 16:36:36
ELMER SOLVER (v 8.4) STARTED AT: 2020/10/14 16:36:36
ELMER SOLVER (v 8.4) STARTED AT: 2020/10/14 16:36:36
ELMER SOLVER (v 8.4) STARTED AT: 2020/10/14 16:36:36
ELMER SOLVER (v 8.4) STARTED AT: 2020/10/14 16:36:36
ELMER SOLVER (v 8.4) STARTED AT: 2020/10/14 16:36:36
ELMER SOLVER (v 8.4) STARTED AT: 2020/10/14 16:36:36
ELMER SOLVER (v 8.4) STARTED AT: 2020/10/14 16:36:36
ELMER SOLVER (v 8.4) STARTED AT: 2020/10/14 16:36:36
ELMER SOLVER (v 8.4) STARTED AT: 2020/10/14 16:36:36
ELMER SOLVER (v 8.4) STARTED AT: 2020/10/14 16:36:36
ELMER SOLVER (v 8.4) STARTED AT: 2020/10/14 16:36:36
ELMER SOLVER (v 8.4) STARTED AT: 2020/10/14 16:36:36
ELMER SOLVER (v 8.4) STARTED AT: 2020/10/14 16:36:36
ELMER SOLVER (v 8.4) STARTED AT: 2020/10/14 16:36:36
ELMER SOLVER (v 8.4) STARTED AT: 2020/10/14 16:36:36
ELMER SOLVER (v 8.4) STARTED AT: 2020/10/14 16:36:36
ELMER SOLVER (v 8.4) STARTED AT: 2020/10/14 16:36:36
ELMER SOLVER (v 8.4) STARTED AT: 2020/10/14 16:36:36
ELMER SOLVER (v 8.4) STARTED AT: 2020/10/14 16:36:36
ELMER SOLVER (v 8.4) STARTED AT: 2020/10/14 16:36:36
ELMER SOLVER (v 8.4) STARTED AT: 2020/10/14 16:36:36
ELMER SOLVER (v 8.4) STARTED AT: 2020/10/14 16:36:36
ELMER SOLVER (v 8.4) STARTED AT: 2020/10/14 16:36:36
ELMER SOLVER (v 8.4) STARTED AT: 2020/10/14 16:36:36
ELMER SOLVER (v 8.4) STARTED AT: 2020/10/14 16:36:36
ELMER SOLVER (v 8.4) STARTED AT: 2020/10/14 16:36:36
ELMER SOLVER (v 8.4) STARTED AT: 2020/10/14 16:36:36
ELMER SOLVER (v 8.4) STARTED AT: 2020/10/14 16:36:36
ELMER SOLVER (v 8.4) STARTED AT: 2020/10/14 16:36:36
ELMER SOLVER (v 8.4) STARTED AT: 2020/10/14 16:36:36
ELMER SOLVER (v 8.4) STARTED AT: 2020/10/14 16:36:36
ELMER SOLVER (v 8.4) STARTED AT: 2020/10/14 16:36:36
ELMER SOLVER (v 8.4) STARTED AT: 2020/10/14 16:36:36
ELMER SOLVER (v 8.4) STARTED AT: 2020/10/14 16:36:36
ELMER SOLVER (v 8.4) STARTED AT: 2020/10/14 16:36:36
ELMER SOLVER (v 8.4) STARTED AT: 2020/10/14 16:36:36
ELMER SOLVER (v 8.4) STARTED AT: 2020/10/14 16:36:36
ELMER SOLVER (v 8.4) STARTED AT: 2020/10/14 16:36:36
ELMER SOLVER (v 8.4) STARTED AT: 2020/10/14 16:36:36
ELMER SOLVER (v 8.4) STARTED AT: 2020/10/14 16:36:36
ELMER SOLVER (v 8.4) STARTED AT: 2020/10/14 16:36:36
ELMER SOLVER (v 8.4) STARTED AT: 2020/10/14 16:36:36
ELMER SOLVER (v 8.4) STARTED AT: 2020/10/14 16:36:36
ELMER SOLVER (v 8.4) STARTED AT: 2020/10/14 16:36:36
ELMER SOLVER (v 8.4) STARTED AT: 2020/10/14 16:36:36
ELMER SOLVER (v 8.4) STARTED AT: 2020/10/14 16:36:36
ELMER SOLVER (v 8.4) STARTED AT: 2020/10/14 16:36:36
ELMER SOLVER (v 8.4) STARTED AT: 2020/10/14 16:36:36
ELMER SOLVER (v 8.4) STARTED AT: 2020/10/14 16:36:36
ELMER SOLVER (v 8.4) STARTED AT: 2020/10/14 16:36:36
ELMER SOLVER (v 8.4) STARTED AT: 2020/10/14 16:36:36
ELMER SOLVER (v 8.4) STARTED AT: 2020/10/14 16:36:36
ELMER SOLVER (v 8.4) STARTED AT: 2020/10/14 16:36:36
ELMER SOLVER (v 8.4) STARTED AT: 2020/10/14 16:36:36
ELMER SOLVER (v 8.4) STARTED AT: 2020/10/14 16:36:36
ELMER SOLVER (v 8.4) STARTED AT: 2020/10/14 16:36:36
ELMER SOLVER (v 8.4) STARTED AT: 2020/10/14 16:36:36
ELMER SOLVER (v 8.4) STARTED AT: 2020/10/14 16:36:36
ELMER SOLVER (v 8.4) STARTED AT: 2020/10/14 16:36:36
ELMER SOLVER (v 8.4) STARTED AT: 2020/10/14 16:36:36
ELMER SOLVER (v 8.4) STARTED AT: 2020/10/14 16:36:36
ELMER SOLVER (v 8.4) STARTED AT: 2020/10/14 16:36:36
ELMER SOLVER (v 8.4) STARTED AT: 2020/10/14 16:36:36
ELMER SOLVER (v 8.4) STARTED AT: 2020/10/14 16:36:36
ELMER SOLVER (v 8.4) STARTED AT: 2020/10/14 16:36:36
ELMER SOLVER (v 8.4) STARTED AT: 2020/10/14 16:36:36
ELMER SOLVER (v 8.4) STARTED AT: 2020/10/14 16:36:36
ELMER SOLVER (v 8.4) STARTED AT: 2020/10/14 16:36:36
ELMER SOLVER (v 8.4) STARTED AT: 2020/10/14 16:36:36
ELMER SOLVER (v 8.4) STARTED AT: 2020/10/14 16:36:36
ELMER SOLVER (v 8.4) STARTED AT: 2020/10/14 16:36:36
ELMER SOLVER (v 8.4) STARTED AT: 2020/10/14 16:36:36
ELMER SOLVER (v 8.4) STARTED AT: 2020/10/14 16:36:36
ELMER SOLVER (v 8.4) STARTED AT: 2020/10/14 16:36:36
ELMER SOLVER (v 8.4) STARTED AT: 2020/10/14 16:36:36
ELMER SOLVER (v 8.4) STARTED AT: 2020/10/14 16:36:36
ELMER SOLVER (v 8.4) STARTED AT: 2020/10/14 16:36:36
ELMER SOLVER (v 8.4) STARTED AT: 2020/10/14 16:36:36
ELMER SOLVER (v 8.4) STARTED AT: 2020/10/14 16:36:36
ELMER SOLVER (v 8.4) STARTED AT: 2020/10/14 16:36:36
ELMER SOLVER (v 8.4) STARTED AT: 2020/10/14 16:36:36
ELMER SOLVER (v 8.4) STARTED AT: 2020/10/14 16:36:36
ELMER SOLVER (v 8.4) STARTED AT: 2020/10/14 16:36:36
ELMER SOLVER (v 8.4) STARTED AT: 2020/10/14 16:36:36
ELMER SOLVER (v 8.4) STARTED AT: 2020/10/14 16:36:36
ELMER SOLVER (v 8.4) STARTED AT: 2020/10/14 16:36:36
ELMER SOLVER (v 8.4) STARTED AT: 2020/10/14 16:36:36
ELMER SOLVER (v 8.4) STARTED AT: 2020/10/14 16:36:36
ELMER SOLVER (v 8.4) STARTED AT: 2020/10/14 16:36:36
ELMER SOLVER (v 8.4) STARTED AT: 2020/10/14 16:36:36
ELMER SOLVER (v 8.4) STARTED AT: 2020/10/14 16:36:36
ELMER SOLVER (v 8.4) STARTED AT: 2020/10/14 16:36:36
ELMER SOLVER (v 8.4) STARTED AT: 2020/10/14 16:36:36
ELMER SOLVER (v 8.4) STARTED AT: 2020/10/14 16:36:36
ELMER SOLVER (v 8.4) STARTED AT: 2020/10/14 16:36:36
ELMER SOLVER (v 8.4) STARTED AT: 2020/10/14 16:36:36
ELMER SOLVER (v 8.4) STARTED AT: 2020/10/14 16:36:36
ParCommInit:  Initialize #PEs:          128
ParCommInit:  Initialize #PEs:          128
ParCommInit:  Initialize #PEs:          128
ParCommInit:  Initialize #PEs:          128
ParCommInit:  Initialize #PEs:          128
ParCommInit:  Initialize #PEs:          128
ParCommInit:  Initialize #PEs:          128
ParCommInit:  Initialize #PEs:          128
ParCommInit:  Initialize #PEs:          128
ParCommInit:  Initialize #PEs:          128
ParCommInit:  Initialize #PEs:          128
ParCommInit:  Initialize #PEs:          128
ParCommInit:  Initialize #PEs:          128
ParCommInit:  Initialize #PEs:          128
ParCommInit:  Initialize #PEs:          128
ParCommInit:  Initialize #PEs:          128
ParCommInit:  Initialize #PEs:          128
ParCommInit:  Initialize #PEs:          128
ParCommInit:  Initialize #PEs:          128
ParCommInit:  Initialize #PEs:          128
ParCommInit:  Initialize #PEs:          128
ParCommInit:  Initialize #PEs:          128
ParCommInit:  Initialize #PEs:          128
ParCommInit:  Initialize #PEs:          128
ParCommInit:  Initialize #PEs:          128
ParCommInit:  Initialize #PEs:          128
ParCommInit:  Initialize #PEs:          128
ParCommInit:  Initialize #PEs:          128
ParCommInit:  Initialize #PEs:          128
ParCommInit:  Initialize #PEs:          128
ParCommInit:  Initialize #PEs:          128
ParCommInit:  Initialize #PEs:          128
ParCommInit:  Initialize #PEs:          128
ParCommInit:  Initialize #PEs:          128
ParCommInit:  Initialize #PEs:          128
ParCommInit:  Initialize #PEs:          128
ParCommInit:  Initialize #PEs:          128
ParCommInit:  Initialize #PEs:          128
ParCommInit:  Initialize #PEs:          128
ParCommInit:  Initialize #PEs:          128
ParCommInit:  Initialize #PEs:          128
ParCommInit:  Initialize #PEs:          128
ParCommInit:  Initialize #PEs:          128
ParCommInit:  Initialize #PEs:          128
ParCommInit:  Initialize #PEs:          128
ParCommInit:  Initialize #PEs:          128
ParCommInit:  Initialize #PEs:          128
ParCommInit:  Initialize #PEs:          128
ParCommInit:  Initialize #PEs:          128
ParCommInit:  Initialize #PEs:          128
ParCommInit:  Initialize #PEs:          128
ParCommInit:  Initialize #PEs:          128
ParCommInit:  Initialize #PEs:          128
ParCommInit:  Initialize #PEs:          128
ParCommInit:  Initialize #PEs:          128
ParCommInit:  Initialize #PEs:          128
ParCommInit:  Initialize #PEs:          128
ParCommInit:  Initialize #PEs:          128
ParCommInit:  Initialize #PEs:          128
ParCommInit:  Initialize #PEs:          128
ParCommInit:  Initialize #PEs:          128
ParCommInit:  Initialize #PEs:          128
ParCommInit:  Initialize #PEs:          128
ParCommInit:  Initialize #PEs:          128
ParCommInit:  Initialize #PEs:          128
ParCommInit:  Initialize #PEs:          128
ParCommInit:  Initialize #PEs:          128
ParCommInit:  Initialize #PEs:          128
ParCommInit:  Initialize #PEs:          128
ParCommInit:  Initialize #PEs:          128
ParCommInit:  Initialize #PEs:          128
ParCommInit:  Initialize #PEs:          128
ParCommInit:  Initialize #PEs:          128
ParCommInit:  Initialize #PEs:          128
ParCommInit:  Initialize #PEs:          128
ParCommInit:  Initialize #PEs:          128
ParCommInit:  Initialize #PEs:          128
ParCommInit:  Initialize #PEs:          128
ParCommInit:  Initialize #PEs:          128
ParCommInit:  Initialize #PEs:          128
ParCommInit:  Initialize #PEs:          128
ParCommInit:  Initialize #PEs:          128
ParCommInit:  Initialize #PEs:          128
ParCommInit:  Initialize #PEs:          128
ParCommInit:  Initialize #PEs:          128
ParCommInit:  Initialize #PEs:          128
ParCommInit:  Initialize #PEs:          128
ParCommInit:  Initialize #PEs:          128
ParCommInit:  Initialize #PEs:          128
ParCommInit:  Initialize #PEs:          128
ParCommInit:  Initialize #PEs:          128
ParCommInit:  Initialize #PEs:          128
ParCommInit:  Initialize #PEs:          128
ParCommInit:  Initialize #PEs:          128
ParCommInit:  Initialize #PEs:          128
ParCommInit:  Initialize #PEs:          128
ParCommInit:  Initialize #PEs:          128
ParCommInit:  Initialize #PEs:          128
ParCommInit:  Initialize #PEs:          128
ParCommInit:  Initialize #PEs:          128
ParCommInit:  Initialize #PEs:          128
ParCommInit:  Initialize #PEs:          128
ParCommInit:  Initialize #PEs:          128
ParCommInit:  Initialize #PEs:          128
ParCommInit:  Initialize #PEs:          128
ParCommInit:  Initialize #PEs:          128
ParCommInit:  Initialize #PEs:          128
ParCommInit:  Initialize #PEs:          128
ParCommInit:  Initialize #PEs:          128
ParCommInit:  Initialize #PEs:          128
ParCommInit:  Initialize #PEs:          128
ParCommInit:  Initialize #PEs:          128
ParCommInit:  Initialize #PEs:          128
ParCommInit:  Initialize #PEs:          128
ParCommInit:  Initialize #PEs:          128
ParCommInit:  Initialize #PEs:          128
ParCommInit:  Initialize #PEs:          128
ParCommInit:  Initialize #PEs:          128
ParCommInit:  Initialize #PEs:          128
ParCommInit:  Initialize #PEs:          128
ParCommInit:  Initialize #PEs:          128
ParCommInit:  Initialize #PEs:          128
ParCommInit:  Initialize #PEs:          128
ParCommInit:  Initialize #PEs:          128
ParCommInit:  Initialize #PEs:          128
ParCommInit:  Initialize #PEs:          128
ParCommInit:  Initialize #PEs:          128
ParCommInit:  Initialize #PEs:          128
MAIN: 
MAIN: =============================================================
MAIN: ElmerSolver finite element software, Welcome!
MAIN: This program is free software licensed under (L)GPL
MAIN: Copyright 1st April 1995 - , CSC - IT Center for Science Ltd.
MAIN: Webpage http://www.csc.fi/elmer, Email elmeradm@csc.fi
MAIN: Version: 8.4 (Rev: 9709cdd, Compiled: 2020-07-23)
MAIN:  Running in parallel using 128 tasks.
MAIN:  Running with just one thread per task.
MAIN:  HYPRE library linked in.
MAIN:  MUMPS library linked in.
MAIN:  Lua interpreted linked in.
MAIN: =============================================================
LoadInputFile: Reading only "Run Control" section
MAIN: 
MAIN: 
MAIN: -------------------------------------
MAIN: Reading Model: TG_relax_S2.sif
LoadInputFile: Scanning input file: TG_relax_S2.sif
LoadInputFile: Scanning only size info
LoadInputFile: First time visiting
LoadInputFile: Reading base load of sif file
LoadInputFile: Loading input file: TG_relax_S2.sif
LoadInputFile: Reading base load of sif file
Model Input:  Unlisted keyword: [buoyancy use basal melt] in section: [constants]
Model Input:  Unlisted keyword: [bottom surface name] in section: [constants]
Model Input:  Unlisted keyword: [sea level] in section: [constants]
Model Input:  Unlisted keyword: [water density] in section: [constants]
Model Input:  Unlisted keyword: [gamma 0] in section: [constants]
Model Input:  Unlisted keyword: [ice density] in section: [constants]
Model Input:  Unlisted keyword: [sw density] in section: [constants]
Model Input:  Unlisted keyword: [latent heat] in section: [constants]
Model Input:  Unlisted keyword: [sw cp] in section: [constants]
Model Input:  Unlisted keyword: [fs upper] in section: [initial condition 1]
Model Input:  Unlisted keyword: [fs lower] in section: [initial condition 1]
Model Input:  Unlisted keyword: [bmb] in section: [initial condition 2]
Model Input:  Unlisted keyword: [fs lower accumulation flux 1] in section: [body force 2]
Model Input:  Unlisted keyword: [fs lower accumulation flux 2] in section: [body force 2]
Model Input:  Unlisted keyword: [fs lower accumulation flux 3] in section: [body force 2]
Model Input:  Unlisted keyword: [fs upper accumulation flux 1] in section: [body force 3]
Model Input:  Unlisted keyword: [fs upper accumulation flux 2] in section: [body force 3]
Model Input:  Unlisted keyword: [cauchy] in section: [material 1]
Model Input:  Unlisted keyword: [limit temperature] in section: [material 1]
Model Input:  Unlisted keyword: [sea level] in section: [material 1]
Model Input:  Unlisted keyword: [min fs upper] in section: [material 3]
Model Input:  Unlisted keyword: [minimum height] in section: [solver 1]
Model Input:  Unlisted keyword: [top surface variable name] in section: [solver 1]
Model Input:  Unlisted keyword: [bottom surface variable name] in section: [solver 1]
Model Input:  Unlisted keyword: [correct surface] in section: [solver 1]
Model Input:  Unlisted keyword: [x dim name] in section: [solver 2]
Model Input:  Unlisted keyword: [y dim name] in section: [solver 2]
Model Input:  Unlisted keyword: [x var name] in section: [solver 2]
Model Input:  Unlisted keyword: [y var name] in section: [solver 2]
Model Input:  Unlisted keyword: [epsilon x] in section: [solver 2]
Model Input:  Unlisted keyword: [epsilon y] in section: [solver 2]
Model Input:  Unlisted keyword: [interpolation bias] in section: [solver 2]
Model Input:  Unlisted keyword: [interpolation multiplier] in section: [solver 2]
Model Input:  Unlisted keyword: [enable scaling] in section: [solver 2]
Model Input:  Unlisted keyword: [x dim name] in section: [solver 3]
Model Input:  Unlisted keyword: [y dim name] in section: [solver 3]
Model Input:  Unlisted keyword: [z dim name] in section: [solver 3]
Model Input:  Unlisted keyword: [x var name] in section: [solver 3]
Model Input:  Unlisted keyword: [y var name] in section: [solver 3]
Model Input:  Unlisted keyword: [z var name] in section: [solver 3]
Model Input:  Unlisted keyword: [epsilon x] in section: [solver 3]
Model Input:  Unlisted keyword: [epsilon y] in section: [solver 3]
Model Input:  Unlisted keyword: [interpolation bias] in section: [solver 3]
Model Input:  Unlisted keyword: [interpolation multiplier] in section: [solver 3]
Model Input:  Unlisted keyword: [enable scaling] in section: [solver 3]
Model Input:  Unlisted keyword: [nonlocal melt rate] in section: [solver 4]
Model Input:  Unlisted keyword: [meltrate mask] in section: [solver 4]
Model Input:  Unlisted keyword: [minimum height] in section: [solver 5]
Model Input:  Unlisted keyword: [top surface variable name] in section: [solver 5]
Model Input:  Unlisted keyword: [bottom surface variable name] in section: [solver 5]
Model Input:  Unlisted keyword: [correct surface] in section: [solver 5]
Model Input:  Unlisted keyword: [toler] in section: [solver 7]
Model Input:  Unlisted keyword: [computeall] in section: [solver 8]
Model Input:  Unlisted keyword: [flow solver name] in section: [solver 11]
Model Input:  Unlisted keyword: [stress variable name] in section: [solver 11]
Model Input:  Unlisted keyword: [eigenvalue variable name] in section: [solver 15]
Model Input:  Unlisted keyword: [tensor variable name] in section: [solver 15]
Model Input:  Unlisted keyword: [test contact tolerance] in section: [boundary condition 3]
Model Input:  Unlisted keyword: [height] in section: [boundary condition 3]
Model Input:  Unlisted keyword: [fs lower condition] in section: [boundary condition 3]
Model Input:  Unlisted keyword: [grounding line definition] in section: [boundary condition 3]
Model Input:  Unlisted keyword: [sliding law] in section: [boundary condition 3]
Model Input:  Unlisted keyword: [friction law sliding coefficient] in section: [boundary condition 3]
Model Input:  Unlisted keyword: [friction law post-peak exponent] in section: [boundary condition 3]
Model Input:  Unlisted keyword: [friction law maximum value] in section: [boundary condition 3]
Model Input:  Unlisted keyword: [friction law powerlaw exponent] in section: [boundary condition 3]
Model Input:  Unlisted keyword: [friction law linear velocity] in section: [boundary condition 3]
Loading user function library: [USF_CoV]...[TenPowerA_masked]
Loading user function library: [USF_CoV]...[TenPowerA_masked]
Loading user function library: [ElmerIceUSF]...[SeaSpring]
Model Input:  Unlisted keyword: [compute sea spring] in section: [boundary condition 3]
Model Input:  Unlisted keyword: [depth] in section: [boundary condition 4]
LoadInputFile: Number of BCs: 4
LoadInputFile: Number of Body Forces: 3
LoadInputFile: Number of Initial Conditions: 2
LoadInputFile: Number of Materials: 3
LoadInputFile: Number of Equations: 3
LoadInputFile: Number of Solvers: 15
LoadInputFile: Number of Bodies: 3
Loading user function library: [StructuredMeshMapper]...[StructuredMeshMapper_Init0]
Loading user function library: [GridDataReader]...[GridDataReader_Init0]
Loading user function library: [GridDataReader]...[GridDataReader_Init0]
Loading user function library: [MeltrateSolver]...[MeltrateSolver_Init0]
Loading user function library: [StructuredMeshMapper]...[StructuredMeshMapper_Init0]
Loading user function library: [StructuredProjectToPlane]...[StructuredProjectToPlane_Init0]
Loading user function library: [ElmerIceSolvers]...[GroundedSolver_Init0]
Loading user function library: [ElmerIceSolvers]...[ComputeNormalSolver_Init0]
Loading user function library: [ElmerIceSolvers]...[GetHydrostaticLoads_Init0]
Loading user function library: [ElmerIceSolvers]...[ComputeDevStress_Init0]
Loading user function library: [FreeSurfaceSolver]...[FreeSurfaceSolver_Init0]
Loading user function library: [FreeSurfaceSolver]...[FreeSurfaceSolver_Init0]
Loading user function library: [ResultOutputSolve]...[ResultOutputSolver_Init0]
Loading user function library: [ElmerIceSolvers]...[ComputeEigenValues_Init0]
LoadMesh: Starting
ElmerAsciiMesh: Performing step: 1
LoadMesh: Base mesh name: ./../mesh2D_TG_refpart/
InitializeMesh: Number of nodes in mesh: 364
InitializeMesh: Number of bulk elements in mesh: 586
InitializeMesh: Number of boundary elements in mesh: 108
ElmerAsciiMesh: Performing step: 2
SetMeshDimension: Dimension of mesh is: 2
SetMeshDimension: Max dimension of mesh is: 2
ElmerAsciiMesh: Performing step: 3
ElmerAsciiMesh: Performing step: 4
LoadMesh: Performing node mapping
LoadMesh: Remapping boundaries
LoadMesh: Minimum initial boundary index: 1
LoadMesh: Maximum initial boundary index: 1
ElmerAsciiMesh: Performing step: 5
ElmerAsciiMesh: Performing step: 6
LoadMesh: Loading mesh done
LoadMesh: Elapsed REAL time:     0.1065 (s)
MeshStabParams: Computing stabilization parameters
MeshStabParams: Elapsed REAL time:     0.0118 (s)
UnitSegmentDivision: Creating functional division
UnitSegmentDivision: Convergence obtained in 135 iterations
UnitSegmentDivision: Mesh division ready
UnitSegmentDivision: w(0) :   0.0000E+00
UnitSegmentDivision: w(1) :   3.7444E-02
UnitSegmentDivision: w(2) :   7.8392E-02
UnitSegmentDivision: w(3) :   1.2317E-01
UnitSegmentDivision: w(4) :   1.7215E-01
UnitSegmentDivision: w(5) :   2.2571E-01
UnitSegmentDivision: w(6) :   2.8428E-01
UnitSegmentDivision: w(7) :   3.4833E-01
UnitSegmentDivision: w(8) :   4.1838E-01
UnitSegmentDivision: w(9) :   4.9499E-01
UnitSegmentDivision: w(10) :   5.7877E-01
UnitSegmentDivision: w(11) :   6.7039E-01
UnitSegmentDivision: w(12) :   7.7059E-01
UnitSegmentDivision: w(13) :   8.8017E-01
UnitSegmentDivision: w(14) :   1.0000E+00
MeshExtrude: First Extruded BC set to: 3
MeshExtrude: Number of new BCs for layers: 1
SetMeshDimension: Dimension of mesh is: 3
SetMeshDimension: Max dimension of mesh is: 3
NonNodalElements: Requested elements require creation of edges
FindMeshEdges: Determining faces in 3D mesh
FindMeshEdges: Determining edges in 3D mesh
MAIN: -------------------------------------
AddEquationBasics: Setting up solver: mapcoordinate_init
Loading user function library: [StructuredMeshMapper]...[StructuredMeshMapper_Init]
Loading user function library: [StructuredMeshMapper]...[StructuredMeshMapper_bulk]
Loading user function library: [StructuredMeshMapper]...[StructuredMeshMapper]
AddEquationBasics: Setting up solver: deltat
Loading user function library: [GridDataReader]...[GridDataReader_Init]
Loading user function library: [GridDataReader]...[GridDataReader_bulk]
Loading user function library: [GridDataReader]...[GridDataReader]
AddEquationBasics: Setting up solver: tfeq
Loading user function library: [GridDataReader]...[GridDataReader_Init]
Loading user function library: [GridDataReader]...[GridDataReader_bulk]
Loading user function library: [GridDataReader]...[GridDataReader]
AddEquationBasics: Setting up solver: get meltrate
Loading user function library: [MeltrateSolver]...[MeltrateSolver_Init]
Loading user function library: [MeltrateSolver]...[MeltrateSolver_bulk]
Loading user function library: [MeltrateSolver]...[MeltrateSolver]
AddEquationBasics: Creating standard variable: bmb
OptimizeBandwidth: ---------------------------------------------------------
OptimizeBandwidth: Computing matrix structure for: get meltrate...done.
OptimizeBandwidth: Half bandwidth without optimization: 728
OptimizeBandwidth: 
OptimizeBandwidth: Bandwidth Optimization ...done.
OptimizeBandwidth: Half bandwidth after optimization: 594
OptimizeBandwidth: ---------------------------------------------------------
AddEquationBasics: Setting up solver: mapcoordinate
Loading user function library: [StructuredMeshMapper]...[StructuredMeshMapper_Init]
Loading user function library: [StructuredMeshMapper]...[StructuredMeshMapper_bulk]
Loading user function library: [StructuredMeshMapper]...[StructuredMeshMapper]
AddEquationBasics: Setting up solver: heightdepth
Loading user function library: [StructuredProjectToPlane]...[StructuredProjectToPlane_Init]
Loading user function library: [StructuredProjectToPlane]...[StructuredProjectToPlane_bulk]
Loading user function library: [StructuredProjectToPlane]...[StructuredProjectToPlane]
AddEquationBasics: Setting up solver: groundedmask
Loading user function library: [ElmerIceSolvers]...[GroundedSolver_Init]
Loading user function library: [ElmerIceSolvers]...[GroundedSolver_bulk]
Loading user function library: [ElmerIceSolvers]...[GroundedSolver]
AddEquationBasics: Creating standard variable: groundedmask
OptimizeBandwidth: ---------------------------------------------------------
OptimizeBandwidth: Computing matrix structure for: groundedmask...done.
OptimizeBandwidth: Half bandwidth without optimization: 346
OptimizeBandwidth: 
OptimizeBandwidth: Bandwidth Optimization ...done.
OptimizeBandwidth: Half bandwidth after optimization: 34
OptimizeBandwidth: ---------------------------------------------------------
AddEquationBasics: Setting up solver: normal vector
Loading user function library: [ElmerIceSolvers]...[ComputeNormalSolver_Init]
Loading user function library: [ElmerIceSolvers]...[ComputeNormalSolver_bulk]
Loading user function library: [ElmerIceSolvers]...[ComputeNormalSolver]
AddEquationBasics: Creating standard variable: normal vector
OptimizeBandwidth: ---------------------------------------------------------
OptimizeBandwidth: Computing matrix structure for: normal vector...done.
OptimizeBandwidth: Half bandwidth without optimization: 728
OptimizeBandwidth: ---------------------------------------------------------
AddEquationBasics: Setting up solver: fw
Loading user function library: [ElmerIceSolvers]...[GetHydrostaticLoads_Init]
Loading user function library: [ElmerIceSolvers]...[GetHydrostaticLoads_bulk]
Loading user function library: [ElmerIceSolvers]...[GetHydrostaticLoads]
AddEquationBasics: Creating standard variable: fw[fwater:3]
OptimizeBandwidth: ---------------------------------------------------------
OptimizeBandwidth: Computing matrix structure for: fw...done.
OptimizeBandwidth: Half bandwidth without optimization: 728
OptimizeBandwidth: 
OptimizeBandwidth: Bandwidth Optimization ...done.
OptimizeBandwidth: Half bandwidth after optimization: 594
OptimizeBandwidth: ---------------------------------------------------------
AddEquationBasics: Setting up solver: navier-stokes
Loading user function library: [FlowSolve]...[FlowSolver_Init]
Loading user function library: [FlowSolve]...[FlowSolver_bulk]
Loading user function library: [FlowSolve]...[FlowSolver]
AddEquationBasics: Creating standard variable: flow solution[velocity:3 pressure:1]
OptimizeBandwidth: ---------------------------------------------------------
OptimizeBandwidth: Computing matrix structure for: navier-stokes...done.
OptimizeBandwidth: Half bandwidth without optimization: 728
OptimizeBandwidth: 
OptimizeBandwidth: Bandwidth Optimization ...done.
OptimizeBandwidth: Half bandwidth after optimization: 594
OptimizeBandwidth: ---------------------------------------------------------
AddEquationBasics: Setting up solver: stresssolver
Loading user function library: [ElmerIceSolvers]...[ComputeDevStress_Init]
Loading user function library: [ElmerIceSolvers]...[ComputeDevStress_bulk]
Loading user function library: [ElmerIceSolvers]...[ComputeDevStress]
AddEquationBasics: Creating standard variable: sij
OptimizeBandwidth: ---------------------------------------------------------
OptimizeBandwidth: Computing matrix structure for: stresssolver...done.
OptimizeBandwidth: Half bandwidth without optimization: 728
OptimizeBandwidth: 
OptimizeBandwidth: Bandwidth Optimization ...done.
OptimizeBandwidth: Half bandwidth after optimization: 594
OptimizeBandwidth: ---------------------------------------------------------
AddEquationBasics: Setting up solver: lower free surface
Loading user function library: [FreeSurfaceSolver]...[FreeSurfaceSolver_Init]
Loading user function library: [FreeSurfaceSolver]...[FreeSurfaceSolver_bulk]
Loading user function library: [FreeSurfaceSolver]...[FreeSurfaceSolver]
AddEquationBasics: Creating standard variable: fs lower
OptimizeBandwidth: ---------------------------------------------------------
OptimizeBandwidth: Computing matrix structure for: lower free surface...done.
OptimizeBandwidth: Half bandwidth without optimization: 346
OptimizeBandwidth: 
OptimizeBandwidth: Bandwidth Optimization ...done.
OptimizeBandwidth: Half bandwidth after optimization: 34
OptimizeBandwidth: ---------------------------------------------------------
AddEquationBasics: Setting up solver: upper free surface
Loading user function library: [FreeSurfaceSolver]...[FreeSurfaceSolver_Init]
Loading user function library: [FreeSurfaceSolver]...[FreeSurfaceSolver_bulk]
Loading user function library: [FreeSurfaceSolver]...[FreeSurfaceSolver]
AddEquationBasics: Creating standard variable: fs upper
OptimizeBandwidth: ---------------------------------------------------------
OptimizeBandwidth: Computing matrix structure for: upper free surface...done.
OptimizeBandwidth: Half bandwidth without optimization: 346
OptimizeBandwidth: 
OptimizeBandwidth: Bandwidth Optimization ...done.
OptimizeBandwidth: Half bandwidth after optimization: 34
OptimizeBandwidth: ---------------------------------------------------------
AddEquationBasics: Setting up solver: resultoutput
Loading user function library: [ResultOutputSolve]...[ResultOutputSolver_Init]
Loading user function library: [ResultOutputSolve]...[ResultOutputSolver_bulk]
Loading user function library: [ResultOutputSolve]...[ResultOutputSolver]
AddEquationBasics: Setting up solver: eigensr
Loading user function library: [ElmerIceSolvers]...[ComputeEigenValues_Init]
Loading user function library: [ElmerIceSolvers]...[ComputeEigenValues_bulk]
Loading user function library: [ElmerIceSolvers]...[ComputeEigenValues]
AddEquationBasics: Creating standard variable: dumy
OptimizeBandwidth: ---------------------------------------------------------
OptimizeBandwidth: Computing matrix structure for: eigensr...done.
OptimizeBandwidth: Half bandwidth without optimization: 728
OptimizeBandwidth: 
OptimizeBandwidth: Bandwidth Optimization ...done.
OptimizeBandwidth: Half bandwidth after optimization: 594
OptimizeBandwidth: ---------------------------------------------------------
Restart: Perfoming global Restart for:
LoadRestartFile: 
LoadRestartFile: --------------------------------------------
LoadRestartFile: Restart for mesh name:
LoadRestartFile: Restart for number of nodes: 5460
LoadRestartFile: Reading data from file: ../TG_S1/Mesh/readnc.result.0
LoadRestartFile: ASCII 3
LoadRestartFile: Reading ascii restart file version 3
LoadRestartFile: Creating variable: vx
LoadRestartFile: Creating variable: vy
LoadRestartFile: Creating variable: surface
LoadRestartFile: Creating variable: bed
LoadRestartFile: Creating variable: thickness
LoadRestartFile: Creating variable: temp_c
LoadRestartFile: Creating variable: q_geo
LoadRestartFile: Creating variable: as_perp_apl
LoadRestartFile: Creating variable: beta
LoadRestartFile: Total number of dofs to load: 9
LoadRestartFile: Reading time sequence:    1.000E-01
LoadRestartFile: Reading timestep: 1
LoadRestartFile: Time spent for restart (s):      5.4036E-02
LoadRestartFile: All done
LoadRestartFile: --------------------------------------------
ElmerSolver: Number of timesteps to be saved: 40
SingleSolver: Attempting to call solver
SingleSolver: Solver Equation string is: mapcoordinate_init
StructuredMeshMapper: ---------------------------------------
StructuredMeshMapper: Performing mapping on a structured mesh
StructuredMeshMapper: ---------------------------------------
DetectExtrudedStructure: Determining extruded structure
DetectExtrudedStructure: Unit vector of direction:   0.000   0.000   1.000
DetectExtrudedStructure: determine top and bottom pointers
DetectExtrudedStructure: Layered structure detected in 14 cycles
DetectExtrudedStructure:  Top and bottom pointer init time:    2.0820000000000283E-003
DetectExtrudedStructure: Top and bottom pointer init rounds: 14
DetectExtrudedStructure: Number of nodes at the top: 364
DetectExtrudedStructure: Number of nodes at the bottom: 364
StructuredMeshMapper: Adjusting upper surface to maintain minimum height to: 0.1000E+01
StructuredMeshMapper: > Correct Surface < in case of intersecting upper and lower surface
StructuredMeshMapper:  Active coordinate mapping time:    0.0000000000000000
Loading user function library: [StructuredMeshMapper]...[StructuredMeshMapper_post]
SingleSolver: Attempting to call solver
SingleSolver: Solver Equation string is: deltat
GridDataReader: -----------------------------------------
GridDataReader: Obtaining field(s) from grid NetCDF format
WARNING:: ListFind: 
WARNING:: ListFind:  Requested property: [Read full array], not found
WARNING:: ListFind: 
WARNING:: ListFind: 
WARNING:: ListFind:  Requested property: [Read full array], not found
WARNING:: ListFind: 
WARNING:: ListFind: 
WARNING:: ListFind:  Requested property: [Read full array], not found
WARNING:: ListFind: 
WARNING:: ListFind: 
WARNING:: ListFind:  Requested property: [Read full array], not found
WARNING:: ListFind: 
WARNING:: ListFind: 
WARNING:: ListFind:  Requested property: [Read full array], not found
WARNING:: ListFind: 
WARNING:: ListFind: 
WARNING:: ListFind:  Requested property: [Read full array], not found
WARNING:: ListFind: 
WARNING:: ListFind: 
WARNING:: ListFind:  Requested property: [Read full array], not found
WARNING:: ListFind: 
WARNING:: ListFind: 
WARNING:: ListFind:  Requested property: [Read full array], not found
WARNING:: ListFind: 
WARNING:: ListFind: 
WARNING:: ListFind:  Requested property: [Read full array], not found
WARNING:: ListFind: 
WARNING:: ListFind: 
WARNING:: ListFind:  Requested property: [Read full array], not found
WARNING:: ListFind: 
WARNING:: ListFind: 
WARNING:: ListFind:  Requested property: [Read full array], not found
WARNING:: ListFind: 
WARNING:: ListFind: 
WARNING:: ListFind:  Requested property: [Read full array], not found
WARNING:: ListFind: 
WARNING:: ListFind: 
WARNING:: ListFind:  Requested property: [Read full array], not found
WARNING:: ListFind: 
WARNING:: ListFind: 
WARNING:: ListFind:  Requested property: [Read full array], not found
WARNING:: ListFind: 
WARNING:: ListFind: 
WARNING:: ListFind:  Requested property: [Read full array], not found
WARNING:: ListFind: 
WARNING:: ListFind: 
WARNING:: ListFind:  Requested property: [Read full array], not found
WARNING:: ListFind: 
WARNING:: ListFind: 
WARNING:: ListFind:  Requested property: [Read full array], not found
WARNING:: ListFind: 
WARNING:: ListFind: 
WARNING:: ListFind:  Requested property: [Read full array], not found
WARNING:: ListFind: 
WARNING:: ListFind: 
WARNING:: ListFind:  Requested property: [Read full array], not found
WARNING:: ListFind: 
WARNING:: ListFind: 
WARNING:: ListFind:  Requested property: [Read full array], not found
WARNING:: ListFind: 
WARNING:: ListFind: 
WARNING:: ListFind:  Requested property: [Read full array], not found
WARNING:: ListFind: 
WARNING:: ListFind: 
WARNING:: ListFind:  Requested property: [Read full array], not found
WARNING:: ListFind: 
WARNING:: ListFind: 
WARNING:: ListFind:  Requested property: [Read full array], not found
WARNING:: ListFind: 
WARNING:: ListFind: 
WARNING:: ListFind:  Requested property: [Read full array], not found
WARNING:: ListFind: 
WARNING:: ListFind: 
WARNING:: ListFind:  Requested property: [Read full array], not found
WARNING:: ListFind: 
WARNING:: ListFind: 
WARNING:: ListFind:  Requested property: [Read full array], not found
WARNING:: ListFind: 
WARNING:: ListFind: 
WARNING:: ListFind:  Requested property: [Read full array], not found
WARNING:: ListFind: 
WARNING:: ListFind: 
WARNING:: ListFind:  Requested property: [Read full array], not found
WARNING:: ListFind: 
WARNING:: ListFind: 
WARNING:: ListFind:  Requested property: [Read full array], not found
WARNING:: ListFind: 
WARNING:: ListFind: 
WARNING:: ListFind:  Requested property: [Read full array], not found
WARNING:: ListFind: 
WARNING:: ListFind: 
WARNING:: ListFind:  Requested property: [Read full array], not found
WARNING:: ListFind: 
WARNING:: ListFind: 
WARNING:: ListFind:  Requested property: [Read full array], not found
WARNING:: ListFind: 
WARNING:: ListFind: 
WARNING:: ListFind:  Requested property: [Read full array], not found
WARNING:: ListFind: 
WARNING:: ListFind: 
WARNING:: ListFind:  Requested property: [Read full array], not found
WARNING:: ListFind: 
GridDataReader: Keyword > X Epsilon < not given, setting to default eps
GridDataReader: Keyword > Y Epsilon < not given, setting equal to > X Epsilon <
GridDataReader: Keyword > Z Epsilon < not given, setting equal to > X Epsilon <
WARNING:: ListFind: 
WARNING:: ListFind:  Requested property: [Read full array], not found
WARNING:: ListFind: 
WARNING:: ListFind: 
WARNING:: ListFind:  Requested property: [Read full array], not found
WARNING:: ListFind: 
WARNING:: ListFind: 
WARNING:: ListFind:  Requested property: [Read full array], not found
WARNING:: ListFind: 
WARNING:: ListFind: 
WARNING:: ListFind:  Requested property: [Read full array], not found
WARNING:: ListFind: 
WARNING:: ListFind: 
WARNING:: ListFind:  Requested property: [Read full array], not found
WARNING:: ListFind: 
WARNING:: ListFind: 
WARNING:: ListFind:  Requested property: [Read full array], not found
WARNING:: ListFind: 
WARNING:: ListFind: 
WARNING:: ListFind:  Requested property: [Read full array], not found
WARNING:: ListFind: 
WARNING:: ListFind: 
WARNING:: ListFind:  Requested property: [Read full array], not found
WARNING:: ListFind: 
WARNING:: ListFind: 
WARNING:: ListFind:  Requested property: [Read full array], not found
WARNING:: ListFind: 
WARNING:: ListFind: 
WARNING:: ListFind:  Requested property: [Read full array], not found
WARNING:: ListFind: 
WARNING:: ListFind: 
WARNING:: ListFind:  Requested property: [Read full array], not found
WARNING:: ListFind: 
WARNING:: ListFind: 
WARNING:: ListFind:  Requested property: [Read full array], not found
WARNING:: ListFind: 
WARNING:: ListFind: 
WARNING:: ListFind:  Requested property: [Read full array], not found
WARNING:: ListFind: 
WARNING:: ListFind: 
WARNING:: ListFind:  Requested property: [Read full array], not found
WARNING:: ListFind: 
WARNING:: ListFind: 
WARNING:: ListFind:  Requested property: [Read full array], not found
WARNING:: ListFind: 
WARNING:: ListFind: 
WARNING:: ListFind:  Requested property: [Read full array], not found
WARNING:: ListFind: 
WARNING:: ListFind: 
WARNING:: ListFind:  Requested property: [Read full array], not found
WARNING:: ListFind: 
WARNING:: ListFind: 
WARNING:: ListFind:  Requested property: [Read full array], not found
WARNING:: ListFind: 
WARNING:: ListFind: 
WARNING:: ListFind:  Requested property: [Read full array], not found
WARNING:: ListFind: 
WARNING:: ListFind: 
WARNING:: ListFind:  Requested property: [Read full array], not found
WARNING:: ListFind: 
WARNING:: ListFind: 
WARNING:: ListFind:  Requested property: [Read full array], not found
WARNING:: ListFind: 
WARNING:: ListFind: 
WARNING:: ListFind:  Requested property: [Read full array], not found
WARNING:: ListFind: 
WARNING:: ListFind: 
WARNING:: ListFind:  Requested property: [Read full array], not found
WARNING:: ListFind: 
WARNING:: ListFind: 
WARNING:: ListFind:  Requested property: [Read full array], not found
WARNING:: ListFind: 
WARNING:: ListFind: 
WARNING:: ListFind:  Requested property: [Read full array], not found
WARNING:: ListFind: 
WARNING:: ListFind: 
WARNING:: ListFind:  Requested property: [Read full array], not found
WARNING:: ListFind: 
WARNING:: ListFind: 
WARNING:: ListFind:  Requested property: [Read full array], not found
WARNING:: ListFind: 
WARNING:: ListFind: 
WARNING:: ListFind:  Requested property: [Read full array], not found
WARNING:: ListFind: 
WARNING:: ListFind: 
WARNING:: ListFind:  Requested property: [Read full array], not found
WARNING:: ListFind: 
WARNING:: ListFind: 
WARNING:: ListFind:  Requested property: [Read full array], not found
WARNING:: ListFind: 
WARNING:: ListFind: 
WARNING:: ListFind:  Requested property: [Read full array], not found
WARNING:: ListFind: 
WARNING:: ListFind: 
WARNING:: ListFind:  Requested property: [Read full array], not found
WARNING:: ListFind: 
WARNING:: ListFind: 
WARNING:: ListFind:  Requested property: [Read full array], not found
WARNING:: ListFind: 
WARNING:: ListFind: 
WARNING:: ListFind:  Requested property: [Read full array], not found
WARNING:: ListFind: 
WARNING:: ListFind: 
WARNING:: ListFind:  Requested property: [Read full array], not found
WARNING:: ListFind: 
WARNING:: ListFind: 
WARNING:: ListFind:  Requested property: [Read full array], not found
WARNING:: ListFind: 
WARNING:: ListFind: 
WARNING:: ListFind:  Requested property: [Read full array], not found
WARNING:: ListFind: 
WARNING:: ListFind: 
WARNING:: ListFind:  Requested property: [Read full array], not found
WARNING:: ListFind: 
WARNING:: ListFind: 
WARNING:: ListFind:  Requested property: [Read full array], not found
WARNING:: ListFind: 
WARNING:: ListFind: 
WARNING:: ListFind:  Requested property: [Read full array], not found
WARNING:: ListFind: 
WARNING:: ListFind: 
WARNING:: ListFind:  Requested property: [Read full array], not found
WARNING:: ListFind: 
WARNING:: ListFind: 
WARNING:: ListFind:  Requested property: [Read full array], not found
WARNING:: ListFind: 
WARNING:: ListFind: 
WARNING:: ListFind:  Requested property: [Read full array], not found
WARNING:: ListFind: 
WARNING:: ListFind: 
WARNING:: ListFind:  Requested property: [Read full array], not found
WARNING:: ListFind: 
WARNING:: ListFind: 
WARNING:: ListFind:  Requested property: [Read full array], not found
WARNING:: ListFind: 
WARNING:: ListFind: 
WARNING:: ListFind:  Requested property: [Read full array], not found
WARNING:: ListFind: 
WARNING:: ListFind: 
WARNING:: ListFind:  Requested property: [Read full array], not found
WARNING:: ListFind: 
WARNING:: ListFind: 
WARNING:: ListFind:  Requested property: [Read full array], not found
WARNING:: ListFind: 
WARNING:: ListFind: 
WARNING:: ListFind:  Requested property: [Read full array], not found
WARNING:: ListFind: 
WARNING:: ListFind: 
WARNING:: ListFind:  Requested property: [Read full array], not found
WARNING:: ListFind: 
WARNING:: ListFind: 
WARNING:: ListFind:  Requested property: [Read full array], not found
WARNING:: ListFind: 
WARNING:: ListFind: 
WARNING:: ListFind:  Requested property: [Read full array], not found
WARNING:: ListFind: 
WARNING:: ListFind: 
WARNING:: ListFind:  Requested property: [Read full array], not found
WARNING:: ListFind: 
WARNING:: ListFind: 
WARNING:: ListFind:  Requested property: [Read full array], not found
WARNING:: ListFind: 
WARNING:: ListFind: 
WARNING:: ListFind:  Requested property: [Read full array], not found
WARNING:: ListFind: 
WARNING:: ListFind: 
WARNING:: ListFind:  Requested property: [Read full array], not found
WARNING:: ListFind: 
WARNING:: ListFind: 
WARNING:: ListFind:  Requested property: [Read full array], not found
WARNING:: ListFind: 
WARNING:: ListFind: 
WARNING:: ListFind:  Requested property: [Read full array], not found
WARNING:: ListFind: 
WARNING:: ListFind: 
WARNING:: ListFind:  Requested property: [Read full array], not found
WARNING:: ListFind: 
WARNING:: ListFind: 
WARNING:: ListFind:  Requested property: [Read full array], not found
WARNING:: ListFind: 
WARNING:: ListFind: 
WARNING:: ListFind:  Requested property: [Read full array], not found
WARNING:: ListFind: 
WARNING:: ListFind: 
WARNING:: ListFind:  Requested property: [Read full array], not found
WARNING:: ListFind: 
WARNING:: ListFind: 
WARNING:: ListFind:  Requested property: [Read full array], not found
WARNING:: ListFind: 
WARNING:: ListFind: 
WARNING:: ListFind:  Requested property: [Read full array], not found
WARNING:: ListFind: 
WARNING:: ListFind: 
WARNING:: ListFind:  Requested property: [Read full array], not found
WARNING:: ListFind: 
WARNING:: ListFind: 
WARNING:: ListFind:  Requested property: [Read full array], not found
WARNING:: ListFind: 
WARNING:: ListFind: 
WARNING:: ListFind:  Requested property: [Read full array], not found
WARNING:: ListFind: 
WARNING:: ListFind: 
WARNING:: ListFind:  Requested property: [Read full array], not found
WARNING:: ListFind: 
WARNING:: ListFind: 
WARNING:: ListFind:  Requested property: [Read full array], not found
WARNING:: ListFind: 
WARNING:: ListFind: 
WARNING:: ListFind:  Requested property: [Read full array], not found
WARNING:: ListFind: 
WARNING:: ListFind: 
WARNING:: ListFind:  Requested property: [Read full array], not found
WARNING:: ListFind: 
WARNING:: ListFind: 
WARNING:: ListFind:  Requested property: [Read full array], not found
WARNING:: ListFind: 
WARNING:: ListFind: 
WARNING:: ListFind:  Requested property: [Read full array], not found
WARNING:: ListFind: 
WARNING:: ListFind: 
WARNING:: ListFind:  Requested property: [Read full array], not found
WARNING:: ListFind: 
WARNING:: ListFind: 
WARNING:: ListFind:  Requested property: [Read full array], not found
WARNING:: ListFind: 
WARNING:: ListFind: 
WARNING:: ListFind:  Requested property: [Read full array], not found
WARNING:: ListFind: 
WARNING:: ListFind: 
WARNING:: ListFind:  Requested property: [Read full array], not found
WARNING:: ListFind: 
WARNING:: ListFind: 
WARNING:: ListFind:  Requested property: [Read full array], not found
WARNING:: ListFind: 
WARNING:: ListFind: 
WARNING:: ListFind:  Requested property: [Read full array], not found
WARNING:: ListFind: 
WARNING:: ListFind: 
WARNING:: ListFind:  Requested property: [Read full array], not found
WARNING:: ListFind: 
WARNING:: ListFind: 
WARNING:: ListFind:  Requested property: [Read full array], not found
WARNING:: ListFind: 
WARNING:: ListFind: 
WARNING:: ListFind:  Requested property: [Read full array], not found
WARNING:: ListFind: 
WARNING:: ListFind: 
WARNING:: ListFind:  Requested property: [Read full array], not found
WARNING:: ListFind: 
WARNING:: ListFind: 
WARNING:: ListFind:  Requested property: [Read full array], not found
WARNING:: ListFind: 
WARNING:: ListFind: 
WARNING:: ListFind:  Requested property: [Read full array], not found
WARNING:: ListFind: 
WARNING:: ListFind: 
WARNING:: ListFind:  Requested property: [Read full array], not found
WARNING:: ListFind: 
WARNING:: ListFind: 
WARNING:: ListFind:  Requested property: [Read full array], not found
WARNING:: ListFind: 
WARNING:: ListFind: 
WARNING:: ListFind:  Requested property: [Read full array], not found
WARNING:: ListFind: 
WARNING:: ListFind: 
WARNING:: ListFind:  Requested property: [Read full array], not found
WARNING:: ListFind: 
WARNING:: ListFind: 
WARNING:: ListFind:  Requested property: [Read full array], not found
WARNING:: ListFind: 
WARNING:: ListFind: 
WARNING:: ListFind:  Requested property: [Read full array], not found
WARNING:: ListFind: 
WARNING:: ListFind: 
WARNING:: ListFind:  Requested property: [Read full array], not found
WARNING:: ListFind: 
WARNING:: ListFind: 
WARNING:: ListFind:  Requested property: [Read full array], not found
WARNING:: ListFind: 
WARNING:: ListFind: 
WARNING:: ListFind:  Requested property: [Read full array], not found
WARNING:: ListFind: 
GridDataReader: Found 1 dimensional coordinate variable > x < : 1
GridDataReader: Found dimension > x < with id 2 and size 761
GridDataReader: Grid parameter of dimension > x < is    8.000E+03
GridDataReader: Range of dimension > x < is [  -3.040E+06   3.040E+06]
GridDataReader: Found 1 dimensional coordinate variable > y < : 1
GridDataReader: Found dimension > y < with id 1 and size 761
GridDataReader: Grid parameter of dimension > y < is    8.000E+03
GridDataReader: Range of dimension > y < is [  -3.040E+06   3.040E+06]
GridDataReader: Omitting the extra dimensions of Elmer mesh
GridDataReader: No time given, using 1st step
GridDataReader: Performing interpolation for variable: deltat_basin
GridDataReader: Number of proper mappings  : 5460
GridDataReader: Elapsed REAL time:     0.4165 (s)
GridDataReader: All done
GridDataReader: -----------------------------------------
Loading user function library: [GridDataReader]...[GridDataReader_post]
ListToCRSMatrix: Matrix format changed from CRS to List
List_ToCRSMatrix: Number of entries in CRS matrix: 2147
List_ToCRSMatrix: Matrix format changed from List to CRS
SingleSolver: Attempting to call solver
SingleSolver: Solver Equation string is: groundedmask
GroundedSolver: Computing grounded mask from geometry
GroundedSolver: Memory allocation done.
GroundedSolver: No Bedrock Variable or Material; searching for material \"Min Zs Bottom\".
GroundedSolver: No front variable defined. Some basal frontal nodes may be left with GroundedMask=1
 Grounding Line, (x,y)  -1525404.3435000000       -488497.92481800000     
 Grounding Line, (x,y)  -1525310.7712399999       -489098.45282900002     
 Grounding Line, (x,y)  -1523415.6176900000       -492649.99230200000     
 Grounding Line, (x,y)  -1523971.8646100000       -492910.99217600003     
 Grounding Line, (x,y)  -1527481.1060400000       -485263.45182000002     
 Grounding Line, (x,y)  -1525821.6890100001       -487272.51644600002     
 Grounding Line, (x,y)  -1526422.3108500000       -486818.43504800001     
 Grounding Line, (x,y)  -1526458.2656099999       -486184.44703600003     
 Grounding Line, (x,y)  -1522494.1063399999       -493462.85385499999     
 Grounding Line, (x,y)  -1527484.7871600001       -483792.99228100001     
 Grounding Line, (x,y)  -1525541.5243400000       -487888.35439100000     
 Grounding Line, (x,y)  -1525299.9737300000       -491082.27565800003     
 Grounding Line, (x,y)  -1544075.4086400000       -443687.56042400002     
 Grounding Line, (x,y)  -1544607.2193600000       -442007.22130600002     
 Grounding Line, (x,y)  -1544278.4951500001       -440911.47184399999     
 Grounding Line, (x,y)  -1543648.7735700000       -440487.55089399999     
 Grounding Line, (x,y)  -1544903.8071200000       -441346.81520999997     
 Grounding Line, (x,y)  -1547027.8982400000       -435234.21497899998     
 Grounding Line, (x,y)  -1546543.0611300000       -435737.35594300000     
 Grounding Line, (x,y)  -1543986.3345600001       -442976.18684500002     
 Grounding Line, (x,y)  -1545855.9299000001       -439352.77657500003     
 Grounding Line, (x,y)  -1545829.8800100000       -440419.28386299999     
 Grounding Line, (x,y)  -1545512.1346300000       -439866.56335399998     
 Grounding Line, (x,y)  -1544965.3595499999       -438259.14680699998     
 Grounding Line, (x,y)  -1542981.1380799999       -439647.77456699999     
 Grounding Line, (x,y)  -1543184.5380899999       -440192.07052800001     
 Grounding Line, (x,y)  -1542282.9409500000       -439151.59366200003     
 Grounding Line, (x,y)  -1543488.2268000001       -443490.35261399997     
 Grounding Line, (x,y)  -1545332.2204400001       -438882.29948200000     
 Grounding Line, (x,y)  -1544981.5963900001       -437626.04927600001     
 Grounding Line, (x,y)  -1545681.3961400001       -436962.06104100001     
 Grounding Line, (x,y)  -1545700.5271900001       -441506.86025000003     
 Grounding Line, (x,y)  -1546136.1180100001       -441061.44247200002     
 Grounding Line, (x,y)  -1541314.0360399999       -438982.83282900002     
 Grounding Line, (x,y)  -1544660.7332899999       -443158.74506500002     
 Grounding Line, (x,y)  -1545039.1319400000       -442515.19996699999     
 Grounding Line, (x,y)  -1546074.2195200000       -436378.78802199999     
 Grounding Line, (x,y)  -1545187.0622300000       -441928.06103600003     
 Grounding Line, (x,y)  -1547188.2278300000       -434593.97376500000     
 Grounding Line, (x,y)  -1544452.8694800001       -442591.09311600000     
 Grounding Line, (x,y)  -1524837.2664800000       -491746.59690200002     
 Grounding Line, (x,y)  -1522850.4399999999       -492906.63608600001     
 Grounding Line, (x,y)  -1525272.1110300000       -489725.34834099998     
 Grounding Line, (x,y)  -1526985.5792500000       -482431.74660499999     
 Grounding Line, (x,y)  -1526825.3970500000       -482976.95643899997     
 Grounding Line, (x,y)  -1526995.5102899999       -485617.18254499999     
 Grounding Line, (x,y)  -1524378.6115900001       -492274.35762500000     
 Grounding Line, (x,y)  -1526893.0932000000       -481819.46385100001     
 Grounding Line, (x,y)  -1526888.0582800000       -481031.73467500001     
 Grounding Line, (x,y)  -1527116.5053000001       -484804.30020800000     
 Grounding Line, (x,y)  -1527105.5236700000       -483450.27230499999     
 Grounding Line, (x,y)  -1527489.9650699999       -484344.84154100000     
 Grounding Line, (x,y)  -1524951.6081699999       -490452.95156700001     
 Grounding Line, (x,y)  -1592919.5469899999       -451708.11361900001     
 Grounding Line, (x,y)  -1596286.7163100000       -449053.66746600001     
 Grounding Line, (x,y)  -1599049.1305900000       -445362.87658400001     
 Grounding Line, (x,y)  -1594483.7256300000       -449538.70134299999     
 Grounding Line, (x,y)  -1595292.8810600000       -449027.77659700002     
 Grounding Line, (x,y)  -1592808.6626299999       -452463.90167799999     
 Grounding Line, (x,y)  -1592118.5263000000       -452749.95361400000     
 Grounding Line, (x,y)  -1596963.4651700000       -448301.11037700000     
 Grounding Line, (x,y)  -1593158.6952300000       -450992.76746499998     
 Grounding Line, (x,y)  -1596047.4568900000       -448367.90660100000     
 Grounding Line, (x,y)  -1593735.6123899999       -450003.43810600002     
 Grounding Line, (x,y)  -1593651.4677700000       -451446.46800100000     
 Grounding Line, (x,y)  -1594349.1065199999       -451060.20501799998     
 Grounding Line, (x,y)  -1592778.1791399999       -453169.36684999999     
 Grounding Line, (x,y)  -1595333.5274700001       -449690.68958399998     
 Grounding Line, (x,y)  -1594421.1111000001       -450184.11567799997     
 Grounding Line, (x,y)  -1593421.0471699999       -452878.61486400000     
 Grounding Line, (x,y)  -1593414.0941300001       -453506.75886100001     
 Grounding Line, (x,y)  -1593485.0951600000       -452243.96706900001     
 Grounding Line, (x,y)  -1597099.5971299999       -446422.41436400003     
 Grounding Line, (x,y)  -1590778.8415399999       -455214.73185699998     
 Grounding Line, (x,y)  -1597134.1230200001       -447166.55592299998     
 Grounding Line, (x,y)  -1596660.1551000001       -447736.72141699999     
 Grounding Line, (x,y)  -1597506.5337199999       -447846.18801400001     
 Grounding Line, (x,y)  -1597814.2279300001       -447124.26932999998     
 Grounding Line, (x,y)  -1598053.9650300001       -445666.89200400002     
 Grounding Line, (x,y)  -1598601.7184800000       -444798.54370099999     
 Grounding Line, (x,y)  -1599394.8541699999       -445818.29662099999     
 Grounding Line, (x,y)  -1597811.4713500000       -446544.11712299997     
 Grounding Line, (x,y)  -1591582.1510600001       -455574.48982600000     
 Grounding Line, (x,y)  -1597684.9041100000       -445082.21986700001     
 Grounding Line, (x,y)  -1590792.0693999999       -455976.43522500002     
 Grounding Line, (x,y)  -1591303.3938800001       -456316.72810299997     
 Grounding Line, (x,y)  -1593317.6133999999       -450401.17284200003     
 Grounding Line, (x,y)  -1555989.5036299999       -433918.76325500000     
 Grounding Line, (x,y)  -1555240.1448500000       -434354.52064300003     
 Grounding Line, (x,y)  -1548513.7697200000       -432673.33952899999     
 Grounding Line, (x,y)  -1548964.3276500001       -431946.92871100002     
 Grounding Line, (x,y)  -1554871.4005300000       -435580.63385300001     
 Grounding Line, (x,y)  -1553801.1554000000       -435435.42047499999     
 Grounding Line, (x,y)  -1557533.9983999999       -431138.65936200001     
 Grounding Line, (x,y)  -1550859.4635099999       -432293.30275899998     
 Grounding Line, (x,y)  -1551937.1598499999       -432364.68353799998     
 Grounding Line, (x,y)  -1556734.3194899999       -431662.96047699999     
 Grounding Line, (x,y)  -1549728.4760300000       -432092.71661800001     
 Grounding Line, (x,y)  -1553539.8729200000       -434238.72738800000     
 Grounding Line, (x,y)  -1552412.7268800000       -432960.72615599999     
 Grounding Line, (x,y)  -1552623.6852800001       -433769.15637799999     
 Grounding Line, (x,y)  -1547875.5566499999       -433275.78493099997     
 Grounding Line, (x,y)  -1547188.2278300000       -434593.97376500000     
 Grounding Line, (x,y)  -1547265.3083400000       -433864.04235100001     
 Grounding Line, (x,y)  -1556001.3186800000       -432945.14347200003     
 Grounding Line, (x,y)  -1556788.7430199999       -432478.49342800002     
 Grounding Line, (x,y)  -1557534.3781900001       -430501.56166599999     
 Grounding Line, (x,y)  -1557859.0016900001       -429899.90792000003     
 Grounding Line, (x,y)  -1538707.4056700000       -443457.07163199998     
 Grounding Line, (x,y)  -1536242.0109300001       -443904.84802099998     
 Grounding Line, (x,y)  -1537364.4903200001       -443504.91302600002     
 Grounding Line, (x,y)  -1536966.1045800000       -444006.74058699998     
 Grounding Line, (x,y)  -1538325.3412100000       -442859.94221200002     
 Grounding Line, (x,y)  -1538024.4931200000       -443471.83239900001     
 Grounding Line, (x,y)  -1539811.0321700000       -440177.39176000003     
 Grounding Line, (x,y)  -1540442.6946099999       -440042.10630699998     
 Grounding Line, (x,y)  -1537856.4596400000       -440975.22535899997     
 Grounding Line, (x,y)  -1538375.3217100000       -440550.89525300002     
 Grounding Line, (x,y)  -1539365.5697200000       -439771.57082000002     
 Grounding Line, (x,y)  -1540884.0118499999       -439575.76612200000     
 Grounding Line, (x,y)  -1535296.8551200000       -443524.28934999998     
 Grounding Line, (x,y)  -1534717.9314600001       -443851.98100000003     
 Grounding Line, (x,y)  -1534193.0052499999       -444136.46653400001     
 Grounding Line, (x,y)  -1533942.5614600000       -444698.44469500001     
 Grounding Line, (x,y)  -1535679.0876199999       -443895.35070900002     
 Grounding Line, (x,y)  -1537967.8795400001       -442248.95250600000     
 Grounding Line, (x,y)  -1537903.4610200000       -441580.03099699999     
 Grounding Line, (x,y)  -1541314.0360399999       -438982.83282900002     
 Grounding Line, (x,y)  -1538767.9502600001       -440015.46349699999     
 Grounding Line, (x,y)  -1516024.2008100001       -505831.77666500001     
 Grounding Line, (x,y)  -1515707.8159300000       -505281.20061800000     
 Grounding Line, (x,y)  -1524895.6388399999       -509906.46924399998     
 Grounding Line, (x,y)  -1524916.7223900000       -510559.99836299999     
 Grounding Line, (x,y)  -1525972.2215400001       -512533.31336299999     
 Grounding Line, (x,y)  -1523468.9214200000       -510116.54172899999     
 Grounding Line, (x,y)  -1523007.2539599999       -510643.49433700001     
 Grounding Line, (x,y)  -1519551.0183500000       -510770.37360900000     
 Grounding Line, (x,y)  -1518613.9862200001       -510809.44653900003     
 Grounding Line, (x,y)  -1526211.4959700000       -513213.58109699999     
 Grounding Line, (x,y)  -1526828.0009000001       -513145.43859099998     
 Grounding Line, (x,y)  -1518143.9833500001       -509536.90372499998     
 Grounding Line, (x,y)  -1520186.3545500000       -511504.89282100002     
 Grounding Line, (x,y)  -1522238.8937400000       -511824.52219300001     
 Grounding Line, (x,y)  -1521609.1340099999       -511919.98585599998     
 Grounding Line, (x,y)  -1525304.2694000001       -512731.46533199999     
 Grounding Line, (x,y)  -1524849.0766700001       -512476.81814900000     
 Grounding Line, (x,y)  -1524264.6802800000       -510165.30184899998     
 Grounding Line, (x,y)  -1517942.5797300001       -508738.00755799998     
 Grounding Line, (x,y)  -1516163.2553000001       -506458.98466600000     
 Grounding Line, (x,y)  -1516085.1153500001       -504581.60469900002     
 Grounding Line, (x,y)  -1516437.9036800000       -502587.91379199998     
 Grounding Line, (x,y)  -1524413.7742500000       -510772.05477400002     
 Grounding Line, (x,y)  -1524384.0233199999       -511396.04963600001     
 Grounding Line, (x,y)  -1516784.3381699999       -506595.11782400002     
 Grounding Line, (x,y)  -1517614.3230900001       -506981.51958000002     
 Grounding Line, (x,y)  -1517051.3677000001       -507048.19770100003     
 Grounding Line, (x,y)  -1517842.3912300000       -507531.94930300000     
 Grounding Line, (x,y)  -1522525.6582200001       -511166.96545299998     
 Grounding Line, (x,y)  -1516808.1969600001       -502186.12649499997     
 Grounding Line, (x,y)  -1516674.9883900001       -501671.20945600001     
 Grounding Line, (x,y)  -1524332.0970699999       -512074.54162600002     
 Grounding Line, (x,y)  -1515394.1810800000       -504317.26748400001     
 Grounding Line, (x,y)  -1515871.0198200000       -502759.82671900000     
 Grounding Line, (x,y)  -1517466.3962500000       -510496.46146399999     
 Grounding Line, (x,y)  -1515794.5839100000       -503349.93387399998     
 Grounding Line, (x,y)  -1515466.9876699999       -503741.18892500002     
 Grounding Line, (x,y)  -1520913.8409400000       -511898.03945300000     
 Grounding Line, (x,y)  -1517516.8538500001       -508091.61470099998     
 Grounding Line, (x,y)  -1532507.6269700001       -467299.41173400002     
 Grounding Line, (x,y)  -1531960.0743900000       -467027.34669199999     
 Grounding Line, (x,y)  -1530945.2785499999       -463900.36064899998     
 Grounding Line, (x,y)  -1531836.1155399999       -465916.54556599999     
 Grounding Line, (x,y)  -1530437.2185100000       -461937.40226599999     
 Grounding Line, (x,y)  -1531444.4346300000       -466529.67205900000     
 Grounding Line, (x,y)  -1531561.5437200000       -465399.90998499998     
 Grounding Line, (x,y)  -1530725.7802899999       -462550.04193499999     
 Grounding Line, (x,y)  -1531031.4241599999       -465129.83015900000     
 Grounding Line, (x,y)  -1530534.2400100001       -464335.41539400001     
 Grounding Line, (x,y)  -1530620.3372299999       -464817.96201100003     
 Grounding Line, (x,y)  -1532747.3699099999       -467755.78833000001     
 Grounding Line, (x,y)  -1530748.6433300001       -463264.20969500003     
 Grounding Line, (x,y)  -1519093.5294600001       -462474.18905699998     
 Grounding Line, (x,y)  -1519097.7908900001       -461771.91515299998     
 Grounding Line, (x,y)  -1519188.9106999999       -463220.87371900002     
 Grounding Line, (x,y)  -1519136.3396600001       -461066.23269999999     
 Grounding Line, (x,y)  -1519908.0423800000       -463314.81452199997     
 Grounding Line, (x,y)  -1519662.8262600000       -460701.48390599998     
 Grounding Line, (x,y)  -1588702.0533100001       -456370.17189699999     
 Grounding Line, (x,y)  -1589261.9912000000       -456053.91113299999     
 Grounding Line, (x,y)  -1588689.9989900000       -455601.84916400001     
 Grounding Line, (x,y)  -1590778.8415399999       -455214.73185699998     
 Grounding Line, (x,y)  -1590056.0594299999       -455821.06746300001     
 Grounding Line, (x,y)  -1589375.2109699999       -455383.67803600000     
 Grounding Line, (x,y)  -1588057.2555499999       -456581.63644300000     
 Grounding Line, (x,y)  -1589785.3990700000       -456496.32333500002     
 Grounding Line, (x,y)  -1590792.0693999999       -455976.43522500002     
 Grounding Line, (x,y)  -1558972.0749700000       -422828.54953999998     
 Grounding Line, (x,y)  -1559384.9894600001       -422245.77713300003     
 Grounding Line, (x,y)  -1560157.8677900000       -421938.88816600002     
 Grounding Line, (x,y)  -1554185.9747200001       -425127.93972099997     
 Grounding Line, (x,y)  -1554632.6512700000       -424396.28936699999     
 Grounding Line, (x,y)  -1558503.4287600000       -428380.48356099997     
 Grounding Line, (x,y)  -1554711.6906300001       -426087.34905100003     
 Grounding Line, (x,y)  -1557579.8321300000       -427414.64846000000     
 Grounding Line, (x,y)  -1557792.4378100000       -428027.65363299998     
 Grounding Line, (x,y)  -1557503.3757499999       -422881.46454500000     
 Grounding Line, (x,y)  -1558174.0882400000       -422907.40150300000     
 Grounding Line, (x,y)  -1555137.9152800001       -427002.59656099998     
 Grounding Line, (x,y)  -1556424.0205200000       -427441.12901300000     
 Grounding Line, (x,y)  -1555631.7739800001       -427790.85931099998     
 Grounding Line, (x,y)  -1557080.8660899999       -427185.07575600001     
 Grounding Line, (x,y)  -1556852.3489699999       -422802.30817500001     
 Grounding Line, (x,y)  -1556375.3616700000       -423388.90136900003     
 Grounding Line, (x,y)  -1555499.0503900000       -423507.65325999999     
 Grounding Line, (x,y)  -1565799.8726700000       -417974.73186900001     
 Grounding Line, (x,y)  -1565648.0758799999       -418703.89615900000     
 Grounding Line, (x,y)  -1560948.7276699999       -415877.01861899998     
 Grounding Line, (x,y)  -1560372.9341300000       -413439.05500400002     
 Grounding Line, (x,y)  -1561306.1948299999       -412442.11238800001     
 Grounding Line, (x,y)  -1563204.3275100000       -410533.17582900001     
 Grounding Line, (x,y)  -1564404.0429100001       -409726.45216300001     
 Grounding Line, (x,y)  -1564963.1028100001       -418800.53800900001     
 Grounding Line, (x,y)  -1564718.6471400000       -417077.41958799999     
 Grounding Line, (x,y)  -1565415.2286100001       -416935.34988599998     
 Grounding Line, (x,y)  -1570232.7935599999       -419542.35448799998     
 Grounding Line, (x,y)  -1557859.0016900001       -429899.90792000003     
 Grounding Line, (x,y)  -1558053.2209900001       -429158.62641800003     
 Grounding Line, (x,y)  -1569493.0126000000       -421641.86442300002     
 Grounding Line, (x,y)  -1570548.7703600000       -418864.78019899997     
 Grounding Line, (x,y)  -1570560.1383199999       -417865.91034800000     
 Grounding Line, (x,y)  -1558817.3004000001       -429030.36966400000     
 Grounding Line, (x,y)  -1560776.3447400001       -414543.85359399999     
 Grounding Line, (x,y)  -1561993.9619600000       -411230.22240099998     
 Grounding Line, (x,y)  -1566127.8698100001       -416803.10012100002     
 Grounding Line, (x,y)  -1562768.9980500001       -420251.07503900002     
 Grounding Line, (x,y)  -1563091.0208099999       -418960.86176800000     
 Grounding Line, (x,y)  -1564179.4908300000       -418852.43348000001     
 Grounding Line, (x,y)  -1565978.5053500000       -417431.00322299998     
 Grounding Line, (x,y)  -1561087.4191099999       -421954.22170200001     
 Grounding Line, (x,y)  -1562369.0210100000       -421482.09787599999     
 Grounding Line, (x,y)  -1564128.6369300000       -417160.48678600002     
 Grounding Line, (x,y)  -1562247.1706999999       -417395.92207099998     
 Grounding Line, (x,y)  -1563303.7290300000       -417664.28850199998     
 Grounding Line, (x,y)  -1565378.4172700001       -410167.52733700001     
 Grounding Line, (x,y)  -1560157.8677900000       -421938.88816600002     
 Grounding Line, (x,y)  -1561057.3285999999       -417250.97435400001     
 Grounding Line, (x,y)  -1558503.4287600000       -428380.48356099997     
 Grounding Line, (x,y)  -1574412.1291400001       -386336.44661300001     
 Grounding Line, (x,y)  -1574678.5827800001       -385728.59525000001     
 Grounding Line, (x,y)  -1575003.9299000001       -385127.23968800000     
 Grounding Line, (x,y)  -1577939.0663600001       -382165.36474200001     
 Grounding Line, (x,y)  -1579736.6193500001       -380808.63075000001     
 Grounding Line, (x,y)  -1579228.0185900000       -381333.82102999999     
 Grounding Line, (x,y)  -1578507.0733700001       -381612.78198799997     
 Grounding Line, (x,y)  -1574169.7808099999       -387729.08927900001     
 Grounding Line, (x,y)  -1574161.4674199999       -388349.13278699998     
 Grounding Line, (x,y)  -1577122.5185000000       -383183.92312799999     
 Grounding Line, (x,y)  -1574258.2253600000       -387020.15437300003     
 Grounding Line, (x,y)  -1579480.4501400001       -380258.14808700001     
 Grounding Line, (x,y)  -1580017.2072399999       -379763.85934600001     
 Grounding Line, (x,y)  -1575148.8112600001       -384559.83760299999     
 Grounding Line, (x,y)  -1577112.6722100000       -382556.78704800003     
 Grounding Line, (x,y)  -1573968.8443000000       -388838.95355300000     
 Grounding Line, (x,y)  -1576286.8245500000       -384174.47170100000     
 Grounding Line, (x,y)  -1576196.4349100001       -383398.26260700001     
 Grounding Line, (x,y)  -1575671.9050900000       -384327.93041600002     
 Grounding Line, (x,y)  -1576285.9559899999       -384174.95414099999     
 Grounding Line, (x,y)  -1573324.0518600000       -389476.66914499999     
 Grounding Line, (x,y)  -1573231.6666900001       -388893.02958899998     
 Grounding Line, (x,y)  -1572575.8719100000       -389238.28924700001     
 Grounding Line, (x,y)  -1573076.6712700000       -394196.67367400002     
 Grounding Line, (x,y)  -1572942.8081300000       -394927.35307100002     
 Grounding Line, (x,y)  -1572369.8082099999       -390945.23653200001     
 Grounding Line, (x,y)  -1574068.0633100001       -393298.53160100000     
 Grounding Line, (x,y)  -1573632.5334200000       -393712.84008499997     
 Grounding Line, (x,y)  -1573323.1632699999       -389477.11315699999     
 Grounding Line, (x,y)  -1572873.6971700001       -391330.69618099998     
 Grounding Line, (x,y)  -1574430.5593699999       -392997.14277999999     
 Grounding Line, (x,y)  -1572357.7225899999       -390096.89226100000     
 Grounding Line, (x,y)  -1574009.5285700001       -392694.79796400003     
 Grounding Line, (x,y)  -1573411.2257900001       -392381.25170000002     
 Grounding Line, (x,y)  -1572923.8579200001       -392092.60106100002     
 Grounding Line, (x,y)  -1561993.9619600000       -411230.22240099998     
 Grounding Line, (x,y)  -1561306.1948299999       -412442.11238800001     
 Grounding Line, (x,y)  -1563204.3275100000       -410533.17582900001     
 Grounding Line, (x,y)  -1569014.3294100000       -405295.04303499998     
 Grounding Line, (x,y)  -1568787.6716799999       -406036.38986800000     
 Grounding Line, (x,y)  -1572657.4590000000       -395595.90906899999     
 Grounding Line, (x,y)  -1572978.1246700000       -396404.32481999998     
 Grounding Line, (x,y)  -1567262.5070799999       -409731.89199999999     
 Grounding Line, (x,y)  -1567884.4187600000       -409609.74985000002     
 Grounding Line, (x,y)  -1573772.9738600000       -397835.11959900003     
 Grounding Line, (x,y)  -1572942.8081300000       -394927.35307100002     
 Grounding Line, (x,y)  -1566364.9695900001       -409921.32733599999     
 Grounding Line, (x,y)  -1569498.2169800000       -407753.65853500000     
 Grounding Line, (x,y)  -1573369.2493400001       -397184.33532999997     
 Grounding Line, (x,y)  -1569673.9559400000       -404172.81575800001     
 Grounding Line, (x,y)  -1574663.2688100000       -398521.04268900002     
 Grounding Line, (x,y)  -1575057.7339600001       -399000.62788200000     
 Grounding Line, (x,y)  -1574295.6342700000       -397627.73699499998     
 Grounding Line, (x,y)  -1574229.7297900000       -398181.35642999999     
 Grounding Line, (x,y)  -1568852.8626800000       -410134.48809399997     
 Grounding Line, (x,y)  -1569458.5492400001       -408784.58102799999     
 Grounding Line, (x,y)  -1570897.5918000001       -403537.22567600000     
 Grounding Line, (x,y)  -1574467.7680599999       -400319.74003200000     
 Grounding Line, (x,y)  -1569183.2957500000       -409579.63710200001     
 Grounding Line, (x,y)  -1568809.5477100001       -406655.37761700002     
 Grounding Line, (x,y)  -1569229.0296900000       -404685.95672999998     
 Grounding Line, (x,y)  -1570177.2548799999       -403533.12231900002     
 Grounding Line, (x,y)  -1568246.9008400000       -410152.63267299999     
 Grounding Line, (x,y)  -1574823.3276899999       -399634.90988499997     
 Grounding Line, (x,y)  -1572989.6185800000       -402515.38055499998     
 Grounding Line, (x,y)  -1573244.8936999999       -401793.94418699999     
 Grounding Line, (x,y)  -1572327.9571300000       -402926.87923999998     
 Grounding Line, (x,y)  -1568911.1302000000       -407359.14325600001     
 Grounding Line, (x,y)  -1565378.4172700001       -410167.52733700001     
 Grounding Line, (x,y)  -1570689.1835800000       -402944.31284799997     
 Grounding Line, (x,y)  -1571647.2461800000       -402682.37079399999     
 Grounding Line, (x,y)  -1573492.0943600000       -401140.51471399999     
 Grounding Line, (x,y)  -1573779.6461100001       -400423.06498400000     
 Grounding Line, (x,y)  -1518693.9284000001       -496830.57824599999     
 Grounding Line, (x,y)  -1518832.1181999999       -496224.54438199999     
 Grounding Line, (x,y)  -1519144.8664899999       -495711.08152000001     
 Grounding Line, (x,y)  -1519937.4913300001       -495801.76735600003     
 Grounding Line, (x,y)  -1517696.9678900000       -498386.37918400002     
 Grounding Line, (x,y)  -1518065.6472100001       -497886.55364800000     
 Grounding Line, (x,y)  -1518371.7218800001       -497362.66193100001     
 Grounding Line, (x,y)  -1517425.3166799999       -499756.60545199999     
 Grounding Line, (x,y)  -1517749.0243299999       -499071.46793599997     
 Grounding Line, (x,y)  -1517108.7257900001       -500398.15428299998     
 Grounding Line, (x,y)  -1522494.1063399999       -493462.85385499999     
 Grounding Line, (x,y)  -1521444.9303600001       -494431.25306600000     
 Grounding Line, (x,y)  -1520831.9034000000       -494947.52918999997     
 Grounding Line, (x,y)  -1516970.8164299999       -501140.93205300003     
 Grounding Line, (x,y)  -1517696.9678900000       -498386.37918400002     
 Grounding Line, (x,y)  -1519937.4913300001       -495801.76735600003     
 Grounding Line, (x,y)  -1520176.3499100001       -495121.65250099998     
 Grounding Line, (x,y)  -1518065.6472100001       -497886.55364800000     
 Grounding Line, (x,y)  -1521844.6065600000       -493851.05421899998     
 Grounding Line, (x,y)  -1516674.9883900001       -501671.20945600001     
 Grounding Line, (x,y)  -1528751.2747800001       -476623.93382500001     
 Grounding Line, (x,y)  -1528266.6223700000       -477757.01312800002     
 Grounding Line, (x,y)  -1528177.0226600000       -477111.67237200000     
 Grounding Line, (x,y)  -1527288.6850800000       -479747.04167300003     
 Grounding Line, (x,y)  -1528494.5424200001       -475960.01742100000     
 Grounding Line, (x,y)  -1529292.8140799999       -474336.52910200000     
 Grounding Line, (x,y)  -1528918.7318599999       -473762.22123800003     
 Grounding Line, (x,y)  -1526892.1728800000       -480295.48214300000     
 Grounding Line, (x,y)  -1528790.3063300001       -474745.71024500002     
 Grounding Line, (x,y)  -1526888.0582800000       -481031.73467500001     
 Grounding Line, (x,y)  -1527632.1158400001       -478012.75556999998     
 Grounding Line, (x,y)  -1527082.5435700000       -479187.49901299999     
 Grounding Line, (x,y)  -1527405.4583999999       -478642.57360800001     
 Grounding Line, (x,y)  -1529077.3299499999       -475603.78959900001     
 Grounding Line, (x,y)  -1528656.5684499999       -475304.15404100000     
 Grounding Line, (x,y)  -1530622.2456300000       -472427.95098000002     
 Grounding Line, (x,y)  -1531260.3596500000       -472231.21562700003     
 Grounding Line, (x,y)  -1532700.1746700001       -469949.00479400001     
 Grounding Line, (x,y)  -1532355.2012199999       -470392.74681500002     
 Grounding Line, (x,y)  -1529984.3732499999       -472990.91742200003     
 Grounding Line, (x,y)  -1529226.0517899999       -473242.18518600002     
 Grounding Line, (x,y)  -1531911.7790999999       -472340.39499399997     
 Grounding Line, (x,y)  -1525326.9071100000       -463538.02156299999     
 Grounding Line, (x,y)  -1532747.3699099999       -467755.78833000001     
 Grounding Line, (x,y)  -1532610.3808500001       -470860.29640300001     
 Grounding Line, (x,y)  -1532949.5814600000       -468759.18214900000     
 Grounding Line, (x,y)  -1527308.0573499999       -463686.16037599999     
 Grounding Line, (x,y)  -1526657.2079799999       -463660.52206599998     
 Grounding Line, (x,y)  -1527970.9084200000       -463744.96282600000     
 Grounding Line, (x,y)  -1525632.3713499999       -464045.70629200002     
 Grounding Line, (x,y)  -1532438.2021300001       -471987.48100299999     
 Grounding Line, (x,y)  -1528420.2672800000       -463280.02852200001     
 Grounding Line, (x,y)  -1528918.7318599999       -473762.22123800003     
 Grounding Line, (x,y)  -1532507.6562099999       -468277.66732399998     
 Grounding Line, (x,y)  -1532547.5172200000       -471382.24207199999     
 Grounding Line, (x,y)  -1533231.1712499999       -469791.72028299997     
 Grounding Line, (x,y)  -1533321.9698200000       -469168.67099900002     
 Grounding Line, (x,y)  -1526186.3315800000       -464165.34614300000     
 Grounding Line, (x,y)  -1523673.6525500000       -464335.45483399997     
 Grounding Line, (x,y)  -1523337.3219099999       -463844.50805599999     
 Grounding Line, (x,y)  -1523790.8913700001       -454815.57682399999     
 Grounding Line, (x,y)  -1523210.9693100001       -454965.79648000002     
 Grounding Line, (x,y)  -1524674.4443399999       -463681.32535100001     
 Grounding Line, (x,y)  -1521630.3201400000       -464364.30360900000     
 Grounding Line, (x,y)  -1520916.4382799999       -463968.53873899998     
 Grounding Line, (x,y)  -1524534.5084299999       -452557.18992199999     
 Grounding Line, (x,y)  -1524620.3269600000       -451963.93709700002     
 Grounding Line, (x,y)  -1520835.5778500000       -458507.15843800001     
 Grounding Line, (x,y)  -1521332.8066000000       -458040.74723899999     
 Grounding Line, (x,y)  -1529515.9756000000       -462931.21003199997     
 Grounding Line, (x,y)  -1521756.5172900001       -457448.69387199997     
 Grounding Line, (x,y)  -1529959.4241400000       -462487.06371100002     
 Grounding Line, (x,y)  -1524390.8650499999       -453667.91719100002     
 Grounding Line, (x,y)  -1524143.4450800000       -453111.36727500003     
 Grounding Line, (x,y)  -1524342.6293400000       -464206.81658699998     
 Grounding Line, (x,y)  -1522990.3667200000       -464308.98641700001     
 Grounding Line, (x,y)  -1520392.0916299999       -458998.92716000002     
 Grounding Line, (x,y)  -1519908.0423800000       -463314.81452199997     
 Grounding Line, (x,y)  -1520137.8082800000       -463970.51177799999     
 Grounding Line, (x,y)  -1528420.2672800000       -463280.02852200001     
 Grounding Line, (x,y)  -1530437.2185100000       -461937.40226599999     
 Grounding Line, (x,y)  -1529079.5268900001       -463436.36808400002     
 Grounding Line, (x,y)  -1520176.6503099999       -459647.58213900001     
 Grounding Line, (x,y)  -1519660.5031399999       -460039.24673999997     
 Grounding Line, (x,y)  -1522372.7315600000       -464258.80531199998     
 Grounding Line, (x,y)  -1523988.8742899999       -454142.45168200001     
 Grounding Line, (x,y)  -1521800.3845200001       -456783.76506599999     
 Grounding Line, (x,y)  -1522264.7202999999       -456474.06436399999     
 Grounding Line, (x,y)  -1525326.9071100000       -463538.02156299999     
 Grounding Line, (x,y)  -1526657.2079799999       -463660.52206599998     
 Grounding Line, (x,y)  -1527308.0573499999       -463686.16037599999     
[...]
      44 0.5698E+01
      45 0.4682E+01
      46 0.4270E+01
      47 0.5751E+01
      48 0.4584E+01
      49 0.4121E+01
      50 0.4170E+01
      51 0.4315E+01
      52 0.1403E+02
      53 0.6798E+01
      54 0.5420E+01
      55 0.4963E+01
      56 0.5262E+02
      57 0.3032E+02
      58 0.2227E+02
      59 0.1143E+02
      60 0.1069E+02
      61 0.1041E+02
      62 0.1017E+02
      63 0.1060E+02
      64 0.4837E+04
      65 0.1094E+02
      66 0.9862E+01
      67 0.1340E+03
      68 0.7098E+01
      69 0.7170E+01
      70 0.9406E+01
      71 0.4102E+02
      72 0.1192E+02
      73 0.1470E+02
      74 0.2591E+03
      75 0.1186E+03
      76 0.2458E+03
      77 0.6424E+02
      78 0.1404E+03
      79 0.1686E+02
      80 0.1676E+02
      81 0.4401E+01
      82 0.4182E+01
      83 0.4230E+01
      84 0.4149E+01
      85 0.4164E+01
      86 0.3098E+01
      87 0.5960E+01
      88 0.7594E+01
      89 0.5901E+01
      90 0.4230E+01
      91 0.5523E+01
      92 0.5443E+01
      93 0.1307E+02
      94 0.8086E+01
      95 0.7041E+01
      96 0.6883E+01
      97 0.7109E+01
      98 0.7401E+01
      99 0.5667E+01
     100 0.5897E+01
     101 0.5255E+01
     102 0.5232E+01
     103 0.5185E+01
     104 0.4770E+01
     105 0.5866E+01
     106 0.5853E+01
     107 0.6474E+01
     108 0.6700E+01
     109 0.7353E+01
     110 0.6637E+01
     111 0.4180E+02
     112 0.4478E+01
     113 0.3810E+01
     114 0.4725E+01
     115 0.2341E+01
     116 0.2141E+01
     117 0.6930E+01
     118 0.1920E+01
     119 0.1891E+01
     120 0.3093E+01
     121 0.2245E+01
     122 0.2070E+01
     123 0.2189E+01
     124 0.3176E+01
     125 0.4622E+01
     126 0.5134E+01
     127 0.2837E+02
     128 0.2958E+02
     129 0.1328E+02
     130 0.1950E+01
     131 0.1302E+02
     132 0.2816E+01
     133 0.2841E+01
     134 0.3103E+01
     135 0.2946E+01
     136 0.2555E+01
     137 0.2937E+01
     138 0.5636E+01
     139 0.2730E+01
     140 0.2639E+01
     141 0.2618E+01
     142 0.2726E+01
     143 0.2094E+01
     144 0.5437E+01
     145 0.2607E+01
     146 0.2357E+01
     147 0.2155E+01
     148 0.2060E+01
     149 0.3969E+01
     150 0.1973E+01
     151 0.5840E+01
     152 0.9219E+01
     153 0.4899E+01
     154 0.2163E+01
     155 0.2147E+01
     156 0.1595E+02
     157 0.1666E+01
     158 0.5771E+01
     159 0.2306E+01
     160 0.2361E+01
     161 0.2339E+01
     162 0.2296E+01
     163 0.1825E+01
     164 0.1815E+01
     165 0.1817E+01
     166 0.1788E+01
     167 0.2855E+01
     168 0.2196E+01
     169 0.2918E+01
     170 0.2239E+01
     171 0.2235E+01
     172 0.2314E+01
     173 0.2059E+01
     174 0.2058E+01
     175 0.1997E+01
     176 0.2247E+01
     177 0.2293E+01
     178 0.9113E+01
     179 0.2034E+02
     180 0.3426E+02
     181 0.2155E+02
     182 0.1392E+02
     183 0.1245E+02
     184 0.1184E+02
     185 0.1319E+02
     186 0.6945E+02
     187 0.6748E+01
     188 0.6263E+01
     189 0.1380E+02
     190 0.4749E+02
     191 0.9760E+02
     192 0.4275E+02
     193 0.4152E+02
     194 0.4102E+02
     195 0.2808E+03
     196 0.2661E+03
     197 0.9521E+02
     198 0.6057E+03
     199 0.5177E+04
     200 0.1264E+03
     201 0.2729E+03
     202 0.4685E+03
     203 0.2141E+02
     204 0.1660E+02
     205 0.1490E+02
     206 0.1401E+02
     207 0.1372E+02
     208 0.1465E+02
     209 0.3029E+02
     210 0.1396E+02
     211 0.1379E+02
     212 0.1354E+02
     213 0.1310E+02
     214 0.1286E+02
     215 0.1282E+02
     216 0.1271E+02
     217 0.1285E+02
     218 0.1273E+02
     219 0.1098E+02
     220 0.1146E+02
     221 0.1115E+02
     222 0.1026E+02
     223 0.8820E+01
     224 0.8902E+01
     225 0.9508E+01
     226 0.6933E+01
     227 0.7070E+01
     228 0.7095E+01
     229 0.7039E+01
     230 0.6207E+01
     231 0.6019E+01
     232 0.5974E+01
     233 0.5376E+01
     234 0.5380E+01
     235 0.7724E+01
     236 0.1204E+02
     237 0.1203E+02
     238 0.6755E+01
     239 0.6751E+01
     240 0.1772E+02
     241 0.1665E+02
     242 0.9540E+01
     243 0.9230E+01
     244 0.7962E+01
     245 0.2577E+02
     246 0.8421E+01
     247 0.6290E+03
     248 0.1385E+02
     249 0.3075E+02
     250 0.3105E+02
     251 0.1836E+02
     252 0.8166E+02
     253 0.8402E+02
     254 0.4157E+02
     255 0.6844E+02
     256 0.1258E+02
     257 0.1606E+02
     258 0.9868E+02
     259 0.3230E+02
     260 0.5743E+02
     261 0.2785E+02
     262 0.5072E+02
     263 0.6505E+01
     264 0.5191E+02
     265 0.7492E+01
     266 0.9584E+01
     267 0.2541E+02
     268 0.2373E+02
     269 0.1709E+02
     270 0.1612E+02
     271 0.1796E+02
     272 0.1819E+02
     273 0.5162E+01
     274 0.4664E+01
     275 0.6145E+01
     276 0.1944E+03
     277 0.1459E+02
     278 0.1128E+02
     279 0.5951E+01
     280 0.5561E+01
     281 0.3885E+01
     282 0.5562E+02
     283 0.2125E+01
     284 0.2893E+01
     285 0.2968E+01
     286 0.2833E+01
     287 0.3565E+01
     288 0.2419E+01
     289 0.1522E+01
     290 0.1472E+01
     291 0.4388E+01
     292 0.1623E+01
     293 0.1636E+01
     294 0.1414E+01
     295 0.1592E+01
     296 0.1449E+01
     297 0.1437E+01
     298 0.1594E+01
     299 0.1477E+01
     300 0.1544E+01
     301 0.1493E+01
     302 0.8899E+01
     303 0.1475E+01
     304 0.1469E+01
     305 0.1624E+01
     306 0.1631E+01
     307 0.1580E+01
     308 0.1633E+01
     309 0.1679E+01
     310 0.1438E+01
     311 0.3190E+01
     312 0.3601E+02
     313 0.1003E+01
     314 0.1547E+01
     315 0.9661E+00
     316 0.1001E+01
     317 0.1319E+01
     318 0.9608E+00
     319 0.9454E+00
     320 0.9460E+00
     321 0.9427E+00
     322 0.9392E+00
     323 0.9400E+00
     324 0.9387E+00
     325 0.9386E+00
     326 0.9384E+00
     327 0.9382E+00
     328 0.9396E+00
     329 0.9377E+00
     330 0.9433E+00
     331 0.9379E+00
     332 0.9386E+00
     333 0.9392E+00
     334 0.9392E+00
     335 0.9392E+00
     336 0.9407E+00
     337 0.5796E+01
     338 0.9668E+00
     339 0.9507E+00
     340 0.1074E+01
     341 0.9667E+00
     342 0.9401E+00
     343 0.9413E+00
     344 0.9414E+00
     345 0.9618E+00
     346 0.1542E+01
     347 0.1637E+01
     348 0.1437E+01
     349 0.1322E+01
     350 0.9902E+01
     351 0.9351E+00
     352 0.9530E+00
     353 0.9447E+00
     354 0.9454E+00
     355 0.9761E+00
     356 0.9488E+00
     357 0.9470E+00
     358 0.9588E+00
     359 0.9531E+00
     360 0.9497E+00
     361 0.9503E+00
     362 0.9497E+00
     363 0.9505E+00
     364 0.9489E+00
     365 0.9545E+00
     366 0.1167E+01
     367 0.1033E+01
     368 0.1067E+01
     369 0.1079E+01
     370 0.1093E+01
     371 0.2748E+01
     372 0.7977E+01
     373 0.2797E+01
     374 0.1494E+01
     375 0.2650E+01
     376 0.1590E+01
     377 0.2072E+01
     378 0.1308E+01
     379 0.6272E+01
     380 0.5748E+01
     381 0.1242E+01
     382 0.5762E+01
     383 0.3290E+01
     384 0.5432E+01
     385 0.1844E+01
     386 0.1494E+01
     387 0.1491E+01
     388 0.1421E+01
     389 0.1434E+01
     390 0.1449E+01
     391 0.1728E+01
     392 0.1586E+01
     393 0.1555E+01
     394 0.1556E+01
     395 0.1560E+01
     396 0.1545E+01
     397 0.1405E+01
     398 0.1826E+01
     399 0.1630E+01
     400 0.1591E+01
     401 0.1824E+01
     402 0.1644E+01
     403 0.1643E+01
     404 0.1587E+01
     405 0.1583E+01
     406 0.1792E+01
     407 0.1166E+01
     408 0.1207E+01
     409 0.1223E+01
     410 0.1421E+01
     411 0.1802E+01
     412 0.1781E+01
     413 0.4215E+01
     414 0.4208E+01
     415 0.3458E+01
     416 0.1714E+01
     417 0.1645E+01
     418 0.1158E+01
     419 0.1185E+01
     420 0.1159E+01
     421 0.1160E+01
     422 0.1166E+01
     423 0.1183E+01
     424 0.1787E+01
     425 0.1589E+01
     426 0.1629E+01
     427 0.1563E+01
     428 0.1374E+01
     429 0.1633E+01
     430 0.1627E+01
     431 0.1423E+01
     432 0.1729E+01
     433 0.1743E+01
     434 0.1321E+01
     435 0.1321E+01
     436 0.1313E+01
     437 0.1297E+01
     438 0.1298E+01
     439 0.1288E+01
     440 0.1850E+01
     441 0.1596E+01
     442 0.1751E+01
     443 0.1223E+01
     444 0.1242E+01
     445 0.1195E+01
     446 0.1260E+01
     447 0.1193E+01
     448 0.1193E+01
     449 0.1204E+01
     450 0.1224E+01
     451 0.1234E+01
     452 0.1277E+01
     453 0.1275E+01
     454 0.1227E+01
     455 0.1227E+01
     456 0.1227E+01
     457 0.1224E+01
     458 0.1233E+01
     459 0.1217E+01
     460 0.1217E+01
     461 0.1214E+01
     462 0.1214E+01
     463 0.1214E+01
     464 0.1229E+01
     465 0.1229E+01
     466 0.1272E+01
     467 0.1174E+01
     468 0.1224E+01
     469 0.1224E+01
     470 0.1224E+01
     471 0.1224E+01
     472 0.1235E+01
     473 0.1228E+01
     474 0.1239E+01
     475 0.1238E+01
     476 0.1241E+01
     477 0.1241E+01
     478 0.1253E+01
     479 0.1263E+01
     480 0.1258E+01
     481 0.1266E+01
     482 0.1263E+01
     483 0.1263E+01
     484 0.1302E+01
     485 0.1174E+01
     486 0.1064E+01
     487 0.1165E+01
     488 0.1182E+01
     489 0.1218E+01
     490 0.1669E+01
     491 0.1663E+01
     492 0.1495E+01
     493 0.2766E+01
     494 0.1134E+01
     495 0.1172E+01
     496 0.9913E+00
     497 0.2539E+02
     498 0.2534E+02
     499 0.1083E+01
     500 0.1034E+01
     501 0.1033E+01
     502 0.9726E+00
     503 0.1248E+01
     504 0.9702E+00
     505 0.9650E+00
     506 0.9774E+00
     507 0.9657E+00
     508 0.1234E+01
     509 0.1237E+01
     510 0.1035E+01
     511 0.2785E+01
     512 0.2671E+01
     513 0.2670E+01
     514 0.2673E+01
     515 0.1298E+01
     516 0.1513E+03
     517 0.3662E+02
     518 0.5516E+01
     519 0.1661E+01
     520 0.1882E+01
     521 0.3370E+01
     522 0.7363E+01
     523 0.6470E+01
     524 0.6543E+01
     525 0.7579E+01
     526 0.5442E+01
     527 0.5748E+01
     528 0.5753E+01
     529 0.5767E+01
     530 0.4298E+01
     531 0.4562E+01
     532 0.4603E+01
     533 0.8666E+01
     534 0.8039E+01
     535 0.7768E+01
     536 0.4052E+02
     537 0.2111E+01
     538 0.8914E+01
     539 0.1741E+02
     540 0.5134E+01
     541 0.9037E+01
     542 0.1193E+01
     543 0.6486E+01
     544 0.6230E+01
     545 0.5729E+02
     546 0.1022E+02
     547 0.5542E+01
     548 0.6640E+01
     549 0.6416E+01
     550 0.8867E+01
     551 0.4628E+01
     552 0.4362E+01
     553 0.3518E+01
     554 0.4830E+01
     555 0.2536E+01
     556 0.3259E+01
     557 0.2663E+01
     558 0.6013E+01
     559 0.1357E+02
     560 0.1231E+02
     561 0.2030E+02
     562 0.2820E+01
     563 0.2258E+01
     564 0.4552E+01
     565 0.4879E+01
     566 0.4899E+01
     567 0.5138E+01
     568 0.5313E+01
     569 0.3941E+01
     570 0.1393E+03
     571 0.1488E+03
     572 0.2411E+02
     573 0.4759E+02
     574 0.3312E+02
     575 0.2404E+02
     576 0.2134E+02
     577 0.1932E+02
     578 0.1294E+02
     579 0.1486E+02
     580 0.1721E+02
     581 0.1808E+02
     582 0.1805E+02
     583 0.2547E+03
     584 0.1511E+03
     585 0.1799E+02
     586 0.1676E+02
     587 0.1653E+02
     588 0.1465E+02
     589 0.1462E+02
     590 0.1829E+02
     591 0.1274E+04
     592 0.2339E+02
     593 0.1346E+02
     594 0.1361E+02
     595 0.1066E+02
     596 0.1040E+02
     597 0.4830E+02
     598 0.3588E+02
     599 0.2572E+02
     600 0.5125E+03
     601 0.5125E+03
ERROR:: IterSolve: Numerical Error: Too many iterations were needed.
ERROR:: IterSolve: Numerical Error: Too many iterations were needed.
ERROR:: IterSolve: Numerical Error: Too many iterations were needed.
ERROR:: IterSolve: Numerical Error: Too many iterations were needed.
ERROR:: IterSolve: Numerical Error: Too many iterations were needed.
ERROR:: IterSolve: Numerical Error: Too many iterations were needed.
ERROR:: IterSolve: Numerical Error: Too many iterations were needed.
ERROR:: IterSolve: Numerical Error: Too many iterations were needed.
ERROR:: IterSolve: Numerical Error: Too many iterations were needed.
ERROR:: IterSolve: Numerical Error: Too many iterations were needed.
ERROR:: IterSolve: Numerical Error: Too many iterations were needed.
ERROR:: IterSolve: Numerical Error: Too many iterations were needed.
ERROR:: IterSolve: Numerical Error: Too many iterations were needed.
ERROR:: IterSolve: Numerical Error: Too many iterations were needed.
ERROR:: IterSolve: Numerical Error: Too many iterations were needed.
ERROR:: IterSolve: Numerical Error: Too many iterations were needed.
ERROR:: IterSolve: Numerical Error: Too many iterations were needed.
ERROR:: IterSolve: Numerical Error: Too many iterations were needed.
ERROR:: IterSolve: Numerical Error: Too many iterations were needed.
ERROR:: IterSolve: Numerical Error: Too many iterations were needed.
ERROR:: IterSolve: Numerical Error: Too many iterations were needed.
ERROR:: IterSolve: Numerical Error: Too many iterations were needed.
ERROR:: IterSolve: Numerical Error: Too many iterations were needed.
ERROR:: IterSolve: Numerical Error: Too many iterations were needed.
ERROR:: IterSolve: Numerical Error: Too many iterations were needed.
ERROR:: IterSolve: Numerical Error: Too many iterations were needed.
ERROR:: IterSolve: Numerical Error: Too many iterations were needed.
ERROR:: IterSolve: Numerical Error: Too many iterations were needed.
ERROR:: IterSolve: Numerical Error: Too many iterations were needed.
ERROR:: IterSolve: Numerical Error: Too many iterations were needed.
ERROR:: IterSolve: Numerical Error: Too many iterations were needed.
ERROR:: IterSolve: Numerical Error: Too many iterations were needed.
ERROR:: IterSolve: Numerical Error: Too many iterations were needed.
ERROR:: IterSolve: Numerical Error: Too many iterations were needed.
ERROR:: IterSolve: Numerical Error: Too many iterations were needed.
ERROR:: IterSolve: Numerical Error: Too many iterations were needed.
ERROR:: IterSolve: Numerical Error: Too many iterations were needed.
ERROR:: IterSolve: Numerical Error: Too many iterations were needed.
ERROR:: IterSolve: Numerical Error: Too many iterations were needed.
ERROR:: IterSolve: Numerical Error: Too many iterations were needed.
ERROR:: IterSolve: Numerical Error: Too many iterations were needed.
ERROR:: IterSolve: Numerical Error: Too many iterations were needed.
ERROR:: IterSolve: Numerical Error: Too many iterations were needed.
ERROR:: IterSolve: Numerical Error: Too many iterations were needed.
ERROR:: IterSolve: Numerical Error: Too many iterations were needed.
ERROR:: IterSolve: Numerical Error: Too many iterations were needed.
ERROR:: IterSolve: Numerical Error: Too many iterations were needed.
ERROR:: IterSolve: Numerical Error: Too many iterations were needed.
ERROR:: IterSolve: Numerical Error: Too many iterations were needed.
ERROR:: IterSolve: Numerical Error: Too many iterations were needed.
ERROR:: IterSolve: Numerical Error: Too many iterations were needed.
ERROR:: IterSolve: Numerical Error: Too many iterations were needed.
ERROR:: IterSolve: Numerical Error: Too many iterations were needed.
ERROR:: IterSolve: Numerical Error: Too many iterations were needed.
ERROR:: IterSolve: Numerical Error: Too many iterations were needed.
ERROR:: IterSolve: Numerical Error: Too many iterations were needed.
ERROR:: IterSolve: Numerical Error: Too many iterations were needed.
ERROR:: IterSolve: Numerical Error: Too many iterations were needed.
ERROR:: IterSolve: Numerical Error: Too many iterations were needed.
ERROR:: IterSolve: Numerical Error: Too many iterations were needed.
ERROR:: IterSolve: Numerical Error: Too many iterations were needed.
ERROR:: IterSolve: Numerical Error: Too many iterations were needed.
ERROR:: IterSolve: Numerical Error: Too many iterations were needed.
ERROR:: IterSolve: Numerical Error: Too many iterations were needed.
ERROR:: IterSolve: Numerical Error: Too many iterations were needed.
ERROR:: IterSolve: Numerical Error: Too many iterations were needed.
ERROR:: IterSolve: Numerical Error: Too many iterations were needed.
ERROR:: IterSolve: Numerical Error: Too many iterations were needed.
ERROR:: IterSolve: Numerical Error: Too many iterations were needed.
ERROR:: IterSolve: Numerical Error: Too many iterations were needed.
ERROR:: IterSolve: Numerical Error: Too many iterations were needed.
ERROR:: IterSolve: Numerical Error: Too many iterations were needed.
ERROR:: IterSolve: Numerical Error: Too many iterations were needed.
ERROR:: IterSolve: Numerical Error: Too many iterations were needed.
ERROR:: IterSolve: Numerical Error: Too many iterations were needed.
ERROR:: IterSolve: Numerical Error: Too many iterations were needed.
ERROR:: IterSolve: Numerical Error: Too many iterations were needed.
ERROR:: IterSolve: Numerical Error: Too many iterations were needed.
ERROR:: IterSolve: Numerical Error: Too many iterations were needed.
ERROR:: IterSolve: Numerical Error: Too many iterations were needed.
ERROR:: IterSolve: Numerical Error: Too many iterations were needed.
ERROR:: IterSolve: Numerical Error: Too many iterations were needed.
ERROR:: IterSolve: Numerical Error: Too many iterations were needed.
ERROR:: IterSolve: Numerical Error: Too many iterations were needed.
ERROR:: IterSolve: Numerical Error: Too many iterations were needed.
ERROR:: IterSolve: Numerical Error: Too many iterations were needed.
ERROR:: IterSolve: Numerical Error: Too many iterations were needed.
ERROR:: IterSolve: Numerical Error: Too many iterations were needed.
ERROR:: IterSolve: Numerical Error: Too many iterations were needed.
ERROR:: IterSolve: Numerical Error: Too many iterations were needed.
ERROR:: IterSolve: Numerical Error: Too many iterations were needed.
ERROR:: IterSolve: Numerical Error: Too many iterations were needed.
ERROR:: IterSolve: Numerical Error: Too many iterations were needed.
ERROR:: IterSolve: Numerical Error: Too many iterations were needed.
ERROR:: IterSolve: Numerical Error: Too many iterations were needed.
ERROR:: IterSolve: Numerical Error: Too many iterations were needed.
ERROR:: IterSolve: Numerical Error: Too many iterations were needed.
ERROR:: IterSolve: Numerical Error: Too many iterations were needed.
ERROR:: IterSolve: Numerical Error: Too many iterations were needed.
ERROR:: IterSolve: Numerical Error: Too many iterations were needed.
ERROR:: IterSolve: Numerical Error: Too many iterations were needed.
ERROR:: IterSolve: Numerical Error: Too many iterations were needed.
ERROR:: IterSolve: Numerical Error: Too many iterations were needed.
ERROR:: IterSolve: Numerical Error: Too many iterations were needed.
ERROR:: IterSolve: Numerical Error: Too many iterations were needed.
ERROR:: IterSolve: Numerical Error: Too many iterations were needed.
ERROR:: IterSolve: Numerical Error: Too many iterations were needed.
ERROR:: IterSolve: Numerical Error: Too many iterations were needed.
ERROR:: IterSolve: Numerical Error: Too many iterations were needed.
ERROR:: IterSolve: Numerical Error: Too many iterations were needed.
ERROR:: IterSolve: Numerical Error: Too many iterations were needed.
ERROR:: IterSolve: Numerical Error: Too many iterations were needed.
ERROR:: IterSolve: Numerical Error: Too many iterations were needed.
ERROR:: IterSolve: Numerical Error: Too many iterations were needed.
ERROR:: IterSolve: Numerical Error: Too many iterations were needed.
ERROR:: IterSolve: Numerical Error: Too many iterations were needed.
ERROR:: IterSolve: Numerical Error: Too many iterations were needed.
ERROR:: IterSolve: Numerical Error: Too many iterations were needed.
ERROR:: IterSolve: Numerical Error: Too many iterations were needed.
ERROR:: IterSolve: Numerical Error: Too many iterations were needed.
ERROR:: IterSolve: Numerical Error: Too many iterations were needed.
ERROR:: IterSolve: Numerical Error: Too many iterations were needed.
ERROR:: IterSolve: Numerical Error: Too many iterations were needed.
ERROR:: IterSolve: Numerical Error: Too many iterations were needed.
ERROR:: IterSolve: Numerical Error: Too many iterations were needed.
ERROR:: IterSolve: Numerical Error: Too many iterations were needed.
ERROR:: IterSolve: Numerical Error: Too many iterations were needed.
ERROR:: IterSolve: Numerical Error: Too many iterations were needed.
