ELMER SOLVER (v 9.0) STARTED AT: 2021/03/31 13:20:30
ELMER SOLVER (v 9.0) STARTED AT: 2021/03/31 13:20:30
ELMER SOLVER (v 9.0) STARTED AT: 2021/03/31 13:20:30
ELMER SOLVER (v 9.0) STARTED AT: 2021/03/31 13:20:30
ELMER SOLVER (v 9.0) STARTED AT: 2021/03/31 13:20:30
ELMER SOLVER (v 9.0) STARTED AT: 2021/03/31 13:20:30
ELMER SOLVER (v 9.0) STARTED AT: 2021/03/31 13:20:30
ELMER SOLVER (v 9.0) STARTED AT: 2021/03/31 13:20:30
ELMER SOLVER (v 9.0) STARTED AT: 2021/03/31 13:20:30
ELMER SOLVER (v 9.0) STARTED AT: 2021/03/31 13:20:30
ELMER SOLVER (v 9.0) STARTED AT: 2021/03/31 13:20:30
ELMER SOLVER (v 9.0) STARTED AT: 2021/03/31 13:20:30
ELMER SOLVER (v 9.0) STARTED AT: 2021/03/31 13:20:30
ELMER SOLVER (v 9.0) STARTED AT: 2021/03/31 13:20:30
ELMER SOLVER (v 9.0) STARTED AT: 2021/03/31 13:20:30
ELMER SOLVER (v 9.0) STARTED AT: 2021/03/31 13:20:30
ELMER SOLVER (v 9.0) STARTED AT: 2021/03/31 13:20:30
ELMER SOLVER (v 9.0) STARTED AT: 2021/03/31 13:20:30
ELMER SOLVER (v 9.0) STARTED AT: 2021/03/31 13:20:30
ELMER SOLVER (v 9.0) STARTED AT: 2021/03/31 13:20:30
ELMER SOLVER (v 9.0) STARTED AT: 2021/03/31 13:20:30
ELMER SOLVER (v 9.0) STARTED AT: 2021/03/31 13:20:30
ELMER SOLVER (v 9.0) STARTED AT: 2021/03/31 13:20:30
ELMER SOLVER (v 9.0) STARTED AT: 2021/03/31 13:20:30
ELMER SOLVER (v 9.0) STARTED AT: 2021/03/31 13:20:30
ELMER SOLVER (v 9.0) STARTED AT: 2021/03/31 13:20:30
ELMER SOLVER (v 9.0) STARTED AT: 2021/03/31 13:20:30
ELMER SOLVER (v 9.0) STARTED AT: 2021/03/31 13:20:30
ELMER SOLVER (v 9.0) STARTED AT: 2021/03/31 13:20:30
ELMER SOLVER (v 9.0) STARTED AT: 2021/03/31 13:20:30
ELMER SOLVER (v 9.0) STARTED AT: 2021/03/31 13:20:30
ELMER SOLVER (v 9.0) STARTED AT: 2021/03/31 13:20:30
ELMER SOLVER (v 9.0) STARTED AT: 2021/03/31 13:20:30
ELMER SOLVER (v 9.0) STARTED AT: 2021/03/31 13:20:30
ELMER SOLVER (v 9.0) STARTED AT: 2021/03/31 13:20:30
ELMER SOLVER (v 9.0) STARTED AT: 2021/03/31 13:20:30
ELMER SOLVER (v 9.0) STARTED AT: 2021/03/31 13:20:30
ELMER SOLVER (v 9.0) STARTED AT: 2021/03/31 13:20:30
ELMER SOLVER (v 9.0) STARTED AT: 2021/03/31 13:20:30
ELMER SOLVER (v 9.0) STARTED AT: 2021/03/31 13:20:30
ELMER SOLVER (v 9.0) STARTED AT: 2021/03/31 13:20:30
ELMER SOLVER (v 9.0) STARTED AT: 2021/03/31 13:20:30
ELMER SOLVER (v 9.0) STARTED AT: 2021/03/31 13:20:30
ELMER SOLVER (v 9.0) STARTED AT: 2021/03/31 13:20:30
ELMER SOLVER (v 9.0) STARTED AT: 2021/03/31 13:20:30
ELMER SOLVER (v 9.0) STARTED AT: 2021/03/31 13:20:30
ELMER SOLVER (v 9.0) STARTED AT: 2021/03/31 13:20:30
ELMER SOLVER (v 9.0) STARTED AT: 2021/03/31 13:20:30
ELMER SOLVER (v 9.0) STARTED AT: 2021/03/31 13:20:30
ELMER SOLVER (v 9.0) STARTED AT: 2021/03/31 13:20:30
ELMER SOLVER (v 9.0) STARTED AT: 2021/03/31 13:20:30
ELMER SOLVER (v 9.0) STARTED AT: 2021/03/31 13:20:30
ELMER SOLVER (v 9.0) STARTED AT: 2021/03/31 13:20:30
ELMER SOLVER (v 9.0) STARTED AT: 2021/03/31 13:20:30
ELMER SOLVER (v 9.0) STARTED AT: 2021/03/31 13:20:30
ELMER SOLVER (v 9.0) STARTED AT: 2021/03/31 13:20:30
ELMER SOLVER (v 9.0) STARTED AT: 2021/03/31 13:20:30
ELMER SOLVER (v 9.0) STARTED AT: 2021/03/31 13:20:30
ELMER SOLVER (v 9.0) STARTED AT: 2021/03/31 13:20:30
ELMER SOLVER (v 9.0) STARTED AT: 2021/03/31 13:20:30
ELMER SOLVER (v 9.0) STARTED AT: 2021/03/31 13:20:30
ELMER SOLVER (v 9.0) STARTED AT: 2021/03/31 13:20:30
ELMER SOLVER (v 9.0) STARTED AT: 2021/03/31 13:20:30
ELMER SOLVER (v 9.0) STARTED AT: 2021/03/31 13:20:30
ELMER SOLVER (v 9.0) STARTED AT: 2021/03/31 13:20:30
ELMER SOLVER (v 9.0) STARTED AT: 2021/03/31 13:20:30
ELMER SOLVER (v 9.0) STARTED AT: 2021/03/31 13:20:30
ELMER SOLVER (v 9.0) STARTED AT: 2021/03/31 13:20:30
ELMER SOLVER (v 9.0) STARTED AT: 2021/03/31 13:20:30
ELMER SOLVER (v 9.0) STARTED AT: 2021/03/31 13:20:30
ELMER SOLVER (v 9.0) STARTED AT: 2021/03/31 13:20:30
ELMER SOLVER (v 9.0) STARTED AT: 2021/03/31 13:20:30
ELMER SOLVER (v 9.0) STARTED AT: 2021/03/31 13:20:30
ELMER SOLVER (v 9.0) STARTED AT: 2021/03/31 13:20:30
ELMER SOLVER (v 9.0) STARTED AT: 2021/03/31 13:20:30
ELMER SOLVER (v 9.0) STARTED AT: 2021/03/31 13:20:30
ELMER SOLVER (v 9.0) STARTED AT: 2021/03/31 13:20:30
ELMER SOLVER (v 9.0) STARTED AT: 2021/03/31 13:20:30
ELMER SOLVER (v 9.0) STARTED AT: 2021/03/31 13:20:30
ELMER SOLVER (v 9.0) STARTED AT: 2021/03/31 13:20:30
ELMER SOLVER (v 9.0) STARTED AT: 2021/03/31 13:20:30
ELMER SOLVER (v 9.0) STARTED AT: 2021/03/31 13:20:30
ELMER SOLVER (v 9.0) STARTED AT: 2021/03/31 13:20:30
ELMER SOLVER (v 9.0) STARTED AT: 2021/03/31 13:20:30
ELMER SOLVER (v 9.0) STARTED AT: 2021/03/31 13:20:30
ELMER SOLVER (v 9.0) STARTED AT: 2021/03/31 13:20:30
ELMER SOLVER (v 9.0) STARTED AT: 2021/03/31 13:20:30
ELMER SOLVER (v 9.0) STARTED AT: 2021/03/31 13:20:30
ELMER SOLVER (v 9.0) STARTED AT: 2021/03/31 13:20:30
ELMER SOLVER (v 9.0) STARTED AT: 2021/03/31 13:20:30
ELMER SOLVER (v 9.0) STARTED AT: 2021/03/31 13:20:30
ELMER SOLVER (v 9.0) STARTED AT: 2021/03/31 13:20:30
ELMER SOLVER (v 9.0) STARTED AT: 2021/03/31 13:20:30
ELMER SOLVER (v 9.0) STARTED AT: 2021/03/31 13:20:30
ELMER SOLVER (v 9.0) STARTED AT: 2021/03/31 13:20:30
ELMER SOLVER (v 9.0) STARTED AT: 2021/03/31 13:20:30
ELMER SOLVER (v 9.0) STARTED AT: 2021/03/31 13:20:30
ELMER SOLVER (v 9.0) STARTED AT: 2021/03/31 13:20:30
ELMER SOLVER (v 9.0) STARTED AT: 2021/03/31 13:20:30
ELMER SOLVER (v 9.0) STARTED AT: 2021/03/31 13:20:30
ELMER SOLVER (v 9.0) STARTED AT: 2021/03/31 13:20:30
ELMER SOLVER (v 9.0) STARTED AT: 2021/03/31 13:20:30
ELMER SOLVER (v 9.0) STARTED AT: 2021/03/31 13:20:30
ELMER SOLVER (v 9.0) STARTED AT: 2021/03/31 13:20:30
ELMER SOLVER (v 9.0) STARTED AT: 2021/03/31 13:20:30
ELMER SOLVER (v 9.0) STARTED AT: 2021/03/31 13:20:30
ELMER SOLVER (v 9.0) STARTED AT: 2021/03/31 13:20:30
ELMER SOLVER (v 9.0) STARTED AT: 2021/03/31 13:20:30
ELMER SOLVER (v 9.0) STARTED AT: 2021/03/31 13:20:30
ELMER SOLVER (v 9.0) STARTED AT: 2021/03/31 13:20:30
ELMER SOLVER (v 9.0) STARTED AT: 2021/03/31 13:20:30
ELMER SOLVER (v 9.0) STARTED AT: 2021/03/31 13:20:30
ELMER SOLVER (v 9.0) STARTED AT: 2021/03/31 13:20:30
ELMER SOLVER (v 9.0) STARTED AT: 2021/03/31 13:20:30
ELMER SOLVER (v 9.0) STARTED AT: 2021/03/31 13:20:30
ELMER SOLVER (v 9.0) STARTED AT: 2021/03/31 13:20:30
ELMER SOLVER (v 9.0) STARTED AT: 2021/03/31 13:20:30
ELMER SOLVER (v 9.0) STARTED AT: 2021/03/31 13:20:30
ELMER SOLVER (v 9.0) STARTED AT: 2021/03/31 13:20:30
ELMER SOLVER (v 9.0) STARTED AT: 2021/03/31 13:20:30
ELMER SOLVER (v 9.0) STARTED AT: 2021/03/31 13:20:30
ELMER SOLVER (v 9.0) STARTED AT: 2021/03/31 13:20:30
ELMER SOLVER (v 9.0) STARTED AT: 2021/03/31 13:20:30
ELMER SOLVER (v 9.0) STARTED AT: 2021/03/31 13:20:30
ELMER SOLVER (v 9.0) STARTED AT: 2021/03/31 13:20:30
ELMER SOLVER (v 9.0) STARTED AT: 2021/03/31 13:20:30
ELMER SOLVER (v 9.0) STARTED AT: 2021/03/31 13:20:30
ELMER SOLVER (v 9.0) STARTED AT: 2021/03/31 13:20:30
ParCommInit:  Initialize #PEs:          128
ParCommInit:  Initialize #PEs:          128
ParCommInit:  Initialize #PEs:          128
ParCommInit:  Initialize #PEs:          128
ParCommInit:  Initialize #PEs:          128
ParCommInit:  Initialize #PEs:          128
ParCommInit:  Initialize #PEs:          128
ParCommInit:  Initialize #PEs:          128
ParCommInit:  Initialize #PEs:          128
ParCommInit:  Initialize #PEs:          128
ParCommInit:  Initialize #PEs:          128
ParCommInit:  Initialize #PEs:          128
ParCommInit:  Initialize #PEs:          128
ParCommInit:  Initialize #PEs:          128
ParCommInit:  Initialize #PEs:          128
ParCommInit:  Initialize #PEs:          128
ParCommInit:  Initialize #PEs:          128
ParCommInit:  Initialize #PEs:          128
ParCommInit:  Initialize #PEs:          128
ParCommInit:  Initialize #PEs:          128
ParCommInit:  Initialize #PEs:          128
ParCommInit:  Initialize #PEs:          128
ParCommInit:  Initialize #PEs:          128
ParCommInit:  Initialize #PEs:          128
ParCommInit:  Initialize #PEs:          128
ParCommInit:  Initialize #PEs:          128
ParCommInit:  Initialize #PEs:          128
ParCommInit:  Initialize #PEs:          128
ParCommInit:  Initialize #PEs:          128
ParCommInit:  Initialize #PEs:          128
ParCommInit:  Initialize #PEs:          128
ParCommInit:  Initialize #PEs:          128
ParCommInit:  Initialize #PEs:          128
ParCommInit:  Initialize #PEs:          128
ParCommInit:  Initialize #PEs:          128
ParCommInit:  Initialize #PEs:          128
ParCommInit:  Initialize #PEs:          128
ParCommInit:  Initialize #PEs:          128
ParCommInit:  Initialize #PEs:          128
ParCommInit:  Initialize #PEs:          128
ParCommInit:  Initialize #PEs:          128
ParCommInit:  Initialize #PEs:          128
ParCommInit:  Initialize #PEs:          128
ParCommInit:  Initialize #PEs:          128
ParCommInit:  Initialize #PEs:          128
ParCommInit:  Initialize #PEs:          128
ParCommInit:  Initialize #PEs:          128
ParCommInit:  Initialize #PEs:          128
ParCommInit:  Initialize #PEs:          128
ParCommInit:  Initialize #PEs:          128
ParCommInit:  Initialize #PEs:          128
ParCommInit:  Initialize #PEs:          128
ParCommInit:  Initialize #PEs:          128
ParCommInit:  Initialize #PEs:          128
ParCommInit:  Initialize #PEs:          128
ParCommInit:  Initialize #PEs:          128
ParCommInit:  Initialize #PEs:          128
ParCommInit:  Initialize #PEs:          128
ParCommInit:  Initialize #PEs:          128
ParCommInit:  Initialize #PEs:          128
ParCommInit:  Initialize #PEs:          128
ParCommInit:  Initialize #PEs:          128
ParCommInit:  Initialize #PEs:          128
ParCommInit:  Initialize #PEs:          128
ParCommInit:  Initialize #PEs:          128
ParCommInit:  Initialize #PEs:          128
ParCommInit:  Initialize #PEs:          128
ParCommInit:  Initialize #PEs:          128
ParCommInit:  Initialize #PEs:          128
ParCommInit:  Initialize #PEs:          128
ParCommInit:  Initialize #PEs:          128
ParCommInit:  Initialize #PEs:          128
ParCommInit:  Initialize #PEs:          128
ParCommInit:  Initialize #PEs:          128
ParCommInit:  Initialize #PEs:          128
ParCommInit:  Initialize #PEs:          128
ParCommInit:  Initialize #PEs:          128
ParCommInit:  Initialize #PEs:          128
ParCommInit:  Initialize #PEs:          128
ParCommInit:  Initialize #PEs:          128
ParCommInit:  Initialize #PEs:          128
ParCommInit:  Initialize #PEs:          128
ParCommInit:  Initialize #PEs:          128
ParCommInit:  Initialize #PEs:          128
ParCommInit:  Initialize #PEs:          128
ParCommInit:  Initialize #PEs:          128
ParCommInit:  Initialize #PEs:          128
ParCommInit:  Initialize #PEs:          128
ParCommInit:  Initialize #PEs:          128
ParCommInit:  Initialize #PEs:          128
ParCommInit:  Initialize #PEs:          128
ParCommInit:  Initialize #PEs:          128
ParCommInit:  Initialize #PEs:          128
ParCommInit:  Initialize #PEs:          128
ParCommInit:  Initialize #PEs:          128
ParCommInit:  Initialize #PEs:          128
ParCommInit:  Initialize #PEs:          128
ParCommInit:  Initialize #PEs:          128
ParCommInit:  Initialize #PEs:          128
ParCommInit:  Initialize #PEs:          128
ParCommInit:  Initialize #PEs:          128
ParCommInit:  Initialize #PEs:          128
ParCommInit:  Initialize #PEs:          128
ParCommInit:  Initialize #PEs:          128
ParCommInit:  Initialize #PEs:          128
ParCommInit:  Initialize #PEs:          128
ParCommInit:  Initialize #PEs:          128
ParCommInit:  Initialize #PEs:          128
ParCommInit:  Initialize #PEs:          128
ParCommInit:  Initialize #PEs:          128
ParCommInit:  Initialize #PEs:          128
ParCommInit:  Initialize #PEs:          128
ParCommInit:  Initialize #PEs:          128
ParCommInit:  Initialize #PEs:          128
ParCommInit:  Initialize #PEs:          128
ParCommInit:  Initialize #PEs:          128
ParCommInit:  Initialize #PEs:          128
ParCommInit:  Initialize #PEs:          128
ParCommInit:  Initialize #PEs:          128
ParCommInit:  Initialize #PEs:          128
ParCommInit:  Initialize #PEs:          128
ParCommInit:  Initialize #PEs:          128
ParCommInit:  Initialize #PEs:          128
ParCommInit:  Initialize #PEs:          128
ParCommInit:  Initialize #PEs:          128
ParCommInit:  Initialize #PEs:          128
ParCommInit:  Initialize #PEs:          128
ParCommInit:  Initialize #PEs:          128
MAIN: 
MAIN: =============================================================
MAIN: ElmerSolver finite element software, Welcome!
MAIN: This program is free software licensed under (L)GPL
MAIN: Copyright 1st April 1995 - , CSC - IT Center for Science Ltd.
MAIN: Webpage http://www.csc.fi/elmer, Email elmeradm@csc.fi
MAIN: Version: 9.0 (Rev: 38b5a9c, Compiled: 2021-03-31)
MAIN:  Running in parallel using 128 tasks.
MAIN:  Running with just one thread per task.
MAIN:  HYPRE library linked in.
MAIN:  MUMPS library linked in.
MAIN:  Lua interpreted linked in.
MAIN:  Zoltan library linked in.
MAIN: =============================================================
LoadInputFile: Trying to read "Run Control" section only
MAIN: 
MAIN: 
MAIN: -------------------------------------
MAIN: Reading Model: Simple2SR.sif
LoadInputFile: Scanning input file: Simple2SR.sif
LoadInputFile: Scanning only size info
LoadInputFile: First time visiting
LoadInputFile: Reading base load of sif file
ERROR:: LoadInputFile: 
ERROR: LoadInputFile:  Unknown specifier: [density]
ERROR:: LoadInputFile:  In section: [material 1]
ERROR:: LoadInputFile:  For property name:[material 2]
ERROR:: LoadInputFile: 
ERROR:: LoadInputFile:  Unknown specifier: [density]
ERROR:: LoadInputFile:  In section: [material 1]
ERROR:: LoadInputFile:  For property name:[material 2]
ERROR:: LoadInputFile: 
ERROR:: LoadInputFile:  Unknown specifier: [density]
ERROR:: LoadInputFile:  In section: [material 1]
ERROR:: LoadInputFile:  For property name:[material 2]
ERROR:: LoadInputFile: 
ERROR:: LoadInputFile:  Unknown specifier: [density]
ERROR:: LoadInputFile:  In section: [material 1]
ERROR:: LoadInputFile:  For property name:[material 2]
ERROR:: LoadInputFile: 
ERROR:: LoadInputFile:  Unknown specifier: [density]
ERROR:: LoadInputFile:  In section: [material 1]
ERROR:: LoadInputFile:  For property name:[material 2]
ERROR:: LoadInputFile: 
ERROR:: LoadInputFile:  Unknown specifier: [density]
ERROR:: LoadInputFile:  In section: [material 1]
ERROR:: LoadInputFile:  For property name:[material 2]
ERROR:: LoadInputFile: 
ERROR:: LoadInputFile:  Unknown specifier: [density]
ERROR:: LoadInputFile:  In section: [material 1]
ERROR:: LoadInputFile:  For property name:[material 2]
ERROR:: LoadInputFile: 
ERROR:: LoadInputFile:  Unknown specifier: [density]
ERROR:: LoadInputFile:  In section: [material 1]
ERROR:: LoadInputFile:  For property name:[material 2]
ERROR:: LoadInputFile: 
ERROR:: LoadInputFile:  Unknown specifier: [density]
ERROR:: LoadInputFile:  In section: [material 1]
ERROR:: LoadInputFile:  For property name:[material 2]
ERROR:: LoadInputFile: 
ERROR:: LoadInputFile:  Unknown specifier: [density]
ERROR:: LoadInputFile:  In section: [material 1]
ERROR:: LoadInputFile:  For property name:[material 2]
ERROR:: LoadInputFile: 
ERROR:: LoadInputFile:  Unknown specifier: [density]
ERROR:: LoadInputFile:  In section: [material 1]
ERROR:: LoadInputFile:  For property name:[material 2]
ERROR:: LoadInputFile: 
ERROR:: LoadInputFile:  Unknown specifier: [density]
ERROR:: LoadInputFile:  In section: [material 1]
ERROR:: LoadInputFile:  For property name:[material 2]
ERROR:: LoadInputFile: 
ERROR:: LoadInputFile:  Unknown specifier: [density]
ERROR:: LoadInputFile:  In section: [material 1]
ERROR:: LoadInputFile:  For property name:[material 2]
ERROR:: LoadInputFile: 
ERROR:: LoadInputFile:  Unknown specifier: [density]
ERROR:: LoadInputFile:  In section: [material 1]
ERROR:: LoadInputFile:  For property name:[material 2]
ERROR:: LoadInputFile: 
ERROR:: LoadInputFile:  Unknown specifier: [density]
ERROR:: LoadInputFile:  In section: [material 1]
ERROR:: LoadInputFile:  For property name:[material 2]
ERROR:: LoadInputFile: 
ERROR:: LoadInputFile:  Unknown specifier: [density]
ERROR:: LoadInputFile:  In section: [material 1]
ERROR:: LoadInputFile:  For property name:[material 2]
ERROR:: LoadInputFile: 
ERROR:: LoadInputFile:  Unknown specifier: [density]
ERROR:: LoadInputFile:  In section: [material 1]
ERROR:: LoadInputFile:  For property name:[material 2]
ERROR:: LoadInputFile: 
ERROR:: LoadInputFile:  Unknown specifier: [density]
ERROR:: LoadInputFile:  In section: [material 1]
ERROR:: LoadInputFile:  For property name:[material 2]
ERROR:: LoadInputFile: 
ERROR:: LoadInputFile:  Unknown specifier: [density]
ERROR:: LoadInputFile:  In section: [material 1]
ERROR:: LoadInputFile:  For property name:[material 2]
ERROR:: LoadInputFile: 
ERROR:: LoadInputFile:  Unknown specifier: [density]
ERROR:: LoadInputFile:  In section: [material 1]
ERROR:: LoadInputFile:  For property name:[material 2]
ERROR:: LoadInputFile: 
ERROR:: LoadInputFile:  Unknown specifier: [density]
ERROR:: LoadInputFile:  In section: [material 1]
ERROR:: LoadInputFile:  For property name:[material 2]
ERROR:: LoadInputFile: 
ERROR:: LoadInputFile:  Unknown specifier: [density]
ERROR:: LoadInputFile:  In section: [material 1]
ERROR:: LoadInputFile:  For property name:[material 2]
ERROR:: LoadInputFile: 
ERROR:: LoadInputFile:  Unknown specifier: [density]
ERROR:: LoadInputFile:  In section: [material 1]
ERROR:: LoadInputFile:  For property name:[material 2]
ERROR:: LoadInputFile: 
ERROR:: LoadInputFile:  Unknown specifier: [density]
ERROR:: LoadInputFile:  In section: [material 1]
ERROR:: LoadInputFile:  For property name:[material 2]
ERROR:: LoadInputFile: 
ERROR:: LoadInputFile:  Unknown specifier: [density]
ERROR:: LoadInputFile:  In section: [material 1]
ERROR:: LoadInputFile:  For property name:[material 2]
ERROR:: LoadInputFile: 
ERROR:: LoadInputFile:  Unknown specifier: [density]
ERROR:: LoadInputFile:  In section: [material 1]
ERROR:: LoadInputFile:  For property name:[material 2]
ERROR:: LoadInputFile: 
ERROR:: LoadInputFile:  Unknown specifier: [density]
ERROR:: LoadInputFile:  In section: [material 1]
ERROR:: LoadInputFile:  For property name:[material 2]
ERROR:: LoadInputFile: 
ERROR:: LoadInputFile:  Unknown specifier: [density]
ERROR:: LoadInputFile:  In section: [material 1]
ERROR:: LoadInputFile:  For property name:[material 2]
ERROR:: LoadInputFile: 
ERROR:: LoadInputFile:  Unknown specifier: [density]
ERROR:: LoadInputFile:  In section: [material 1]
ERROR:: LoadInputFile:  For property name:[material 2]
ERROR:: LoadInputFile: 
ERROR:: LoadInputFile:  Unknown specifier: [density]
ERROR:: LoadInputFile:  In section: [material 1]
ERROR:: LoadInputFile:  For property name:[material 2]
ERROR:: LoadInputFile: 
ERROR:: LoadInputFile:  Unknown specifier: [density]
ERROR:: LoadInputFile:  In section: [material 1]
ERROR:: LoadInputFile:  For property name:[material 2]
ERROR:: LoadInputFile: 
ERROR:: LoadInputFile:  Unknown specifier: [density]
ERROR:: LoadInputFile:  In section: [material 1]
ERROR:: LoadInputFile:  For property name:[material 2]
ERROR:: LoadInputFile: 
ERROR:: LoadInputFile:  Unknown specifier: [density]
ERROR:: LoadInputFile:  In section: [material 1]
ERROR:: LoadInputFile:  For property name:[material 2]
ERROR:: LoadInputFile: 
ERROR:: LoadInputFile:  Unknown specifier: [density]
ERROR:: LoadInputFile:  In section: [material 1]
ERROR:: LoadInputFile:  For property name:[material 2]
ERROR:: LoadInputFile: 
ERROR:: LoadInputFile:  Unknown specifier: [density]
ERROR:: LoadInputFile:  In section: [material 1]
ERROR:: LoadInputFile:  For property name:[material 2]
ERROR:: LoadInputFile: 
ERROR:: LoadInputFile:  Unknown specifier: [density]
ERROR:: LoadInputFile:  In section: [material 1]
ERROR:: LoadInputFile:  For property name:[material 2]
ERROR:: LoadInputFile: 
ERROR:: LoadInputFile:  Unknown specifier: [density]
ERROR:: LoadInputFile:  In section: [material 1]
ERROR:: LoadInputFile:  For property name:[material 2]
ERROR:: LoadInputFile: 
ERROR:: LoadInputFile:  Unknown specifier: [density]
ERROR:: LoadInputFile:  In section: [material 1]
ERROR:: LoadInputFile:  For property name:[material 2]
ERROR:: LoadInputFile: 
ERROR:: LoadInputFile:  Unknown specifier: [density]
ERROR:: LoadInputFile:  In section: [material 1]
ERROR:: LoadInputFile:  For property name:[material 2]
ERROR:: LoadInputFile: 
ERROR:: LoadInputFile:  Unknown specifier: [density]
ERROR:: LoadInputFile:  In section: [material 1]
ERROR:: LoadInputFile:  For property name:[material 2]
ERROR:: LoadInputFile: 
ERROR:: LoadInputFile:  Unknown specifier: [density]
ERROR:: LoadInputFile:  In section: [material 1]
ERROR:: LoadInputFile:  For property name:[material 2]
ERROR:: LoadInputFile: 
ERROR:: LoadInputFile:  Unknown specifier: [density]
ERROR:: LoadInputFile:  In section: [material 1]
ERROR:: LoadInputFile:  For property name:[material 2]
ERROR:: LoadInputFile: 
ERROR:: LoadInputFile:  Unknown specifier: [density]
ERROR:: LoadInputFile:  In section: [material 1]
ERROR:: LoadInputFile:  For property name:[material 2]
ERROR:: LoadInputFile: 
ERROR:: LoadInputFile:  Unknown specifier: [density]
ERROR:: LoadInputFile:  In section: [material 1]
ERROR:: LoadInputFile:  For property name:[material 2]
ERROR:: LoadInputFile: 
ERROR:: LoadInputFile:  Unknown specifier: [density]
ERROR:: LoadInputFile:  In section: [material 1]
ERROR:: LoadInputFile:  For property name:[material 2]
ERROR:: LoadInputFile: 
ERROR:: LoadInputFile:  Unknown specifier: [density]
ERROR:: LoadInputFile:  In section: [material 1]
ERROR:: LoadInputFile:  For property name:[material 2]
ERROR:: LoadInputFile: 
ERROR:: LoadInputFile:  Unknown specifier: [density]
ERROR:: LoadInputFile:  In section: [material 1]
ERROR:: LoadInputFile:  For property name:[material 2]
ERROR:: LoadInputFile: 
ERROR:: LoadInputFile:  Unknown specifier: [density]
ERROR:: LoadInputFile:  In section: [material 1]
ERROR:: LoadInputFile:  For property name:[material 2]
ERROR:: LoadInputFile: 
ERROR:: LoadInputFile:  Unknown specifier: [density]
ERROR:: LoadInputFile:  In section: [material 1]
ERROR:: LoadInputFile:  For property name:[material 2]
ERROR:: LoadInputFile: 
ERROR:: LoadInputFile:  Unknown specifier: [density]
ERROR:: LoadInputFile:  In section: [material 1]
ERROR:: LoadInputFile:  For property name:[material 2]
ERROR:: LoadInputFile: 
ERROR:: LoadInputFile:  Unknown specifier: [density]
ERROR:: LoadInputFile:  In section: [material 1]
ERROR:: LoadInputFile:  For property name:[material 2]
ERROR:: LoadInputFile: 
ERROR:: LoadInputFile:  Unknown specifier: [density]
ERROR:: LoadInputFile:  In section: [material 1]
ERROR:: LoadInputFile:  For property name:[material 2]
ERROR:: LoadInputFile: 
ERROR:: LoadInputFile:  Unknown specifier: [density]
ERROR:: LoadInputFile:  In section: [material 1]
ERROR:: LoadInputFile:  For property name:[material 2]
ERROR:: LoadInputFile: 
ERROR:: LoadInputFile:  Unknown specifier: [density]
ERROR:: LoadInputFile:  In section: [material 1]
ERROR:: LoadInputFile:  For property name:[material 2]
ERROR:: LoadInputFile: 
ERROR:: LoadInputFile:  Unknown specifier: [density]
ERROR:: LoadInputFile:  In section: [material 1]
ERROR:: LoadInputFile:  For property name:[material 2]
ERROR:: LoadInputFile: 
ERROR:: LoadInputFile:  Unknown specifier: [density]
ERROR:: LoadInputFile:  In section: [material 1]
ERROR:: LoadInputFile:  For property name:[material 2]
ERROR:: LoadInputFile: 
ERROR:: LoadInputFile:  Unknown specifier: [density]
ERROR:: LoadInputFile:  In section: [material 1]
ERROR:: LoadInputFile:  For property name:[material 2]
ERROR:: LoadInputFile: 
ERROR:: LoadInputFile:  Unknown specifier: [density]
ERROR:: LoadInputFile:  In section: [material 1]
ERROR:: LoadInputFile:  For property name:[material 2]
ERROR:: LoadInputFile: 
ERROR:: LoadInputFile:  Unknown specifier: [density]
ERROR:: LoadInputFile:  In section: [material 1]
ERROR:: LoadInputFile:  For property name:[material 2]
ERROR:: LoadInputFile: 
ERROR:: LoadInputFile:  Unknown specifier: [density]
ERROR:: LoadInputFile:  In section: [material 1]
ERROR:: LoadInputFile:  For property name:[material 2]
ERROR:: LoadInputFile: 
ERROR:: LoadInputFile:  Unknown specifier: [density]
ERROR:: LoadInputFile:  In section: [material 1]
ERROR:: LoadInputFile:  For property name:[material 2]
ERROR:: LoadInputFile: 
ERROR:: LoadInputFile:  Unknown specifier: [density]
ERROR:: LoadInputFile:  In section: [material 1]
ERROR:: LoadInputFile:  For property name:[material 2]
ERROR:: LoadInputFile: 
ERROR:: LoadInputFile:  Unknown specifier: [density]
ERROR:: LoadInputFile:  In section: [material 1]
ERROR:: LoadInputFile:  For property name:[material 2]
ERROR:: LoadInputFile: 
ERROR:: LoadInputFile:  Unknown specifier: [density]
ERROR:: LoadInputFile:  In section: [material 1]
ERROR:: LoadInputFile:  For property name:[material 2]
ERROR:: LoadInputFile: 
ERROR:: LoadInputFile:  Unknown specifier: [density]
ERROR:: LoadInputFile:  In section: [material 1]
ERROR:: LoadInputFile:  For property name:[material 2]
ERROR:: LoadInputFile: 
ERROR:: LoadInputFile:  Unknown specifier: [density]
ERROR:: LoadInputFile:  In section: [material 1]
ERROR:: LoadInputFile:  For property name:[material 2]
ERROR:: LoadInputFile: 
ERROR:: LoadInputFile:  Unknown specifier: [density]
ERROR:: LoadInputFile:  In section: [material 1]
ERROR:: LoadInputFile:  For property name:[material 2]
ERROR:: LoadInputFile: 
ERROR:: LoadInputFile:  Unknown specifier: [density]
ERROR:: LoadInputFile:  In section: [material 1]
ERROR:: LoadInputFile:  For property name:[material 2]
ERROR:: LoadInputFile: 
ERROR:: LoadInputFile:  Unknown specifier: [density]
ERROR:: LoadInputFile:  In section: [material 1]
ERROR:: LoadInputFile:  For property name:[material 2]
ERROR:: LoadInputFile: 
ERROR:: LoadInputFile:  Unknown specifier: [density]
ERROR:: LoadInputFile:  In section: [material 1]
ERROR:: LoadInputFile:  For property name:[material 2]
ERROR:: LoadInputFile: 
ERROR:: LoadInputFile:  Unknown specifier: [density]
ERROR:: LoadInputFile:  In section: [material 1]
ERROR:: LoadInputFile:  For property name:[material 2]
ERROR:: LoadInputFile: 
ERROR:: LoadInputFile:  Unknown specifier: [density]
ERROR:: LoadInputFile:  In section: [material 1]
ERROR:: LoadInputFile:  For property name:[material 2]
ERROR:: LoadInputFile: 
ERROR:: LoadInputFile:  Unknown specifier: [density]
ERROR:: LoadInputFile:  In section: [material 1]
ERROR:: LoadInputFile:  For property name:[material 2]
ERROR:: LoadInputFile: 
ERROR:: LoadInputFile:  Unknown specifier: [density]
ERROR:: LoadInputFile:  In section: [material 1]
ERROR:: LoadInputFile:  For property name:[material 2]
ERROR:: LoadInputFile: 
ERROR:: LoadInputFile:  Unknown specifier: [density]
ERROR:: LoadInputFile:  In section: [material 1]
ERROR:: LoadInputFile:  For property name:[material 2]
ERROR:: LoadInputFile: 
ERROR:: LoadInputFile:  Unknown specifier: [density]
ERROR:: LoadInputFile:  In section: [material 1]
ERROR:: LoadInputFile:  For property name:[material 2]
ERROR:: LoadInputFile: 
ERROR:: LoadInputFile:  Unknown specifier: [density]
ERROR:: LoadInputFile:  In section: [material 1]
ERROR:: LoadInputFile:  For property name:[material 2]
ERROR:: LoadInputFile: 
ERROR:: LoadInputFile:  Unknown specifier: [density]
ERROR:: LoadInputFile:  In section: [material 1]
ERROR:: LoadInputFile:  For property name:[material 2]
ERROR:: LoadInputFile: 
ERROR:: LoadInputFile:  Unknown specifier: [density]
ERROR:: LoadInputFile:  In section: [material 1]
ERROR:: LoadInputFile:  For property name:[material 2]
ERROR:: LoadInputFile: 
ERROR:: LoadInputFile:  Unknown specifier: [density]
ERROR:: LoadInputFile:  In section: [material 1]
ERROR:: LoadInputFile:  For property name:[material 2]
ERROR:: LoadInputFile: 
ERROR:: LoadInputFile:  Unknown specifier: [density]
ERROR:: LoadInputFile:  In section: [material 1]
ERROR:: LoadInputFile:  For property name:[material 2]
ERROR:: LoadInputFile: 
ERROR:: LoadInputFile:  Unknown specifier: [density]
ERROR:: LoadInputFile:  In section: [material 1]
ERROR:: LoadInputFile:  For property name:[material 2]
ERROR:: LoadInputFile: 
ERROR:: LoadInputFile:  Unknown specifier: [density]
ERROR:: LoadInputFile:  In section: [material 1]
ERROR:: LoadInputFile:  For property name:[material 2]
ERROR:: LoadInputFile: 
ERROR:: LoadInputFile:  Unknown specifier: [density]
ERROR:: LoadInputFile:  In section: [material 1]
ERROR:: LoadInputFile:  For property name:[material 2]
ERROR:: LoadInputFile: 
ERROR:: LoadInputFile:  Unknown specifier: [density]
ERROR:: LoadInputFile:  In section: [material 1]
ERROR:: LoadInputFile:  For property name:[material 2]
ERROR:: LoadInputFile: 
ERROR:: LoadInputFile:  Unknown specifier: [density]
ERROR:: LoadInputFile:  In section: [material 1]
ERROR:: LoadInputFile:  For property name:[material 2]
ERROR:: LoadInputFile: 
ERROR:: LoadInputFile:  Unknown specifier: [density]
ERROR:: LoadInputFile:  In section: [material 1]
ERROR:: LoadInputFile:  For property name:[material 2]
ERROR:: LoadInputFile: 
ERROR:: LoadInputFile:  Unknown specifier: [density]
ERROR:: LoadInputFile:  In section: [material 1]
ERROR:: LoadInputFile:  For property name:[material 2]
ERROR:: LoadInputFile: 
ERROR:: LoadInputFile:  Unknown specifier: [density]
ERROR:: LoadInputFile:  In section: [material 1]
ERROR:: LoadInputFile:  For property name:[material 2]
ERROR:: LoadInputFile: 
ERROR:: LoadInputFile:  Unknown specifier: [density]
ERROR:: LoadInputFile:  In section: [material 1]
ERROR:: LoadInputFile:  For property name:[material 2]
ERROR:: LoadInputFile: 
ERROR:: LoadInputFile:  Unknown specifier: [density]
ERROR:: LoadInputFile:  In section: [material 1]
ERROR:: LoadInputFile:  For property name:[material 2]
ERROR:: LoadInputFile: 
ERROR:: LoadInputFile:  Unknown specifier: [density]
ERROR:: LoadInputFile:  In section: [material 1]
ERROR:: LoadInputFile:  For property name:[material 2]
ERROR:: LoadInputFile: 
ERROR:: LoadInputFile:  Unknown specifier: [density]
ERROR:: LoadInputFile:  In section: [material 1]
ERROR:: LoadInputFile:  For property name:[material 2]
ERROR:: LoadInputFile: 
ERROR:: LoadInputFile:  Unknown specifier: [density]
ERROR:: LoadInputFile:  In section: [material 1]
ERROR:: LoadInputFile:  For property name:[material 2]
ERROR:: LoadInputFile: 
ERROR:: LoadInputFile:  Unknown specifier: [density]
ERROR:: LoadInputFile:  In section: [material 1]
ERROR:: LoadInputFile:  For property name:[material 2]
ERROR:: LoadInputFile: 
ERROR:: LoadInputFile:  Unknown specifier: [density]
ERROR:: LoadInputFile:  In section: [material 1]
ERROR:: LoadInputFile:  For property name:[material 2]
ERROR:: LoadInputFile: 
ERROR:: LoadInputFile:  Unknown specifier: [density]
ERROR:: LoadInputFile:  In section: [material 1]
ERROR:: LoadInputFile:  For property name:[material 2]
ERROR:: LoadInputFile: 
ERROR:: LoadInputFile:  Unknown specifier: [density]
ERROR:: LoadInputFile:  In section: [material 1]
ERROR:: LoadInputFile:  For property name:[material 2]
ERROR:: LoadInputFile: 
ERROR:: LoadInputFile:  Unknown specifier: [density]
ERROR:: LoadInputFile:  In section: [material 1]
ERROR:: LoadInputFile:  For property name:[material 2]
ERROR:: LoadInputFile: 
ERROR:: LoadInputFile:  Unknown specifier: [density]
ERROR:: LoadInputFile:  In section: [material 1]
ERROR:: LoadInputFile:  For property name:[material 2]
ERROR:: LoadInputFile: 
ERROR:: LoadInputFile:  Unknown specifier: [density]
ERROR:: LoadInputFile:  In section: [material 1]
ERROR:: LoadInputFile:  For property name:[material 2]
ERROR:: LoadInputFile: 
ERROR:: LoadInputFile:  Unknown specifier: [density]
ERROR:: LoadInputFile:  In section: [material 1]
ERROR:: LoadInputFile:  For property name:[material 2]
ERROR:: LoadInputFile: 
ERROR:: LoadInputFile:  Unknown specifier: [density]
ERROR:: LoadInputFile:  In section: [material 1]
ERROR:: LoadInputFile:  For property name:[material 2]
ERROR:: LoadInputFile: 
ERROR:: LoadInputFile:  Unknown specifier: [density]
ERROR:: LoadInputFile:  In section: [material 1]
ERROR:: LoadInputFile:  For property name:[material 2]
ERROR:: LoadInputFile: 
ERROR:: LoadInputFile:  Unknown specifier: [density]
ERROR:: LoadInputFile:  In section: [material 1]
ERROR:: LoadInputFile:  For property name:[material 2]
ERROR:: LoadInputFile: 
ERROR:: LoadInputFile:  Unknown specifier: [density]
ERROR:: LoadInputFile:  In section: [material 1]
ERROR:: LoadInputFile:  For property name:[material 2]
ERROR:: LoadInputFile: 
ERROR:: LoadInputFile:  Unknown specifier: [density]
ERROR:: LoadInputFile:  In section: [material 1]
ERROR:: LoadInputFile:  For property name:[material 2]
ERROR:: LoadInputFile: 
ERROR:: LoadInputFile:  Unknown specifier: [density]
ERROR:: LoadInputFile:  In section: [material 1]
ERROR:: LoadInputFile:  For property name:[material 2]
ERROR:: LoadInputFile: 
ERROR:: LoadInputFile:  Unknown specifier: [density]
ERROR:: LoadInputFile:  In section: [material 1]
ERROR:: LoadInputFile:  For property name:[material 2]
ERROR:: LoadInputFile: 
ERROR:: LoadInputFile:  Unknown specifier: [density]
ERROR:: LoadInputFile:  In section: [material 1]
ERROR:: LoadInputFile:  For property name:[material 2]
ERROR:: LoadInputFile: 
ERROR:: LoadInputFile:  Unknown specifier: [density]
ERROR:: LoadInputFile:  In section: [material 1]
ERROR:: LoadInputFile:  For property name:[material 2]
ERROR:: LoadInputFile: 
ERROR:: LoadInputFile:  Unknown specifier: [density]
ERROR:: LoadInputFile:  In section: [material 1]
ERROR:: LoadInputFile:  For property name:[material 2]
ERROR:: LoadInputFile: 
ERROR:: LoadInputFile:  Unknown specifier: [density]
ERROR:: LoadInputFile:  In section: [material 1]
ERROR:: LoadInputFile:  For property name:[material 2]
ERROR:: LoadInputFile: 
ERROR:: LoadInputFile:  Unknown specifier: [density]
ERROR:: LoadInputFile:  In section: [material 1]
ERROR:: LoadInputFile:  For property name:[material 2]
ERROR:: LoadInputFile: 
ERROR:: LoadInputFile:  Unknown specifier: [density]
ERROR:: LoadInputFile:  In section: [material 1]
ERROR:: LoadInputFile:  For property name:[material 2]
ERROR:: LoadInputFile: 
ERROR:: LoadInputFile:  Unknown specifier: [density]
ERROR:: LoadInputFile:  In section: [material 1]
ERROR:: LoadInputFile:  For property name:[material 2]
ERROR:: LoadInputFile: 
ERROR:: LoadInputFile:  Unknown specifier: [density]
ERROR:: LoadInputFile:  In section: [material 1]
ERROR:: LoadInputFile:  For property name:[material 2]
ERROR:: LoadInputFile: 
ERROR:: LoadInputFile:  Unknown specifier: [density]
ERROR:: LoadInputFile:  In section: [material 1]
ERROR:: LoadInputFile:  For property name:[material 2]
ERROR:: LoadInputFile: 
ERROR:: LoadInputFile:  Unknown specifier: [density]
ERROR:: LoadInputFile:  In section: [material 1]
ERROR:: LoadInputFile:  For property name:[material 2]
ERROR:: LoadInputFile: 
ERROR:: LoadInputFile:  Unknown specifier: [density]
ERROR:: LoadInputFile:  In section: [material 1]
ERROR:: LoadInputFile:  For property name:[material 2]
ERROR:: LoadInputFile: 
ERROR:: LoadInputFile:  Unknown specifier: [density]
ERROR:: LoadInputFile:  In section: [material 1]
ERROR:: LoadInputFile:  For property name:[material 2]
ERROR:: LoadInputFile: 
ERROR:: LoadInputFile:  Unknown specifier: [density]
ERROR:: LoadInputFile:  In section: [material 1]
ERROR:: LoadInputFile:  For property name:[material 2]
ERROR:: LoadInputFile: 
ERROR:: LoadInputFile:  Unknown specifier: [density]
ERROR:: LoadInputFile:  In section: [material 1]
ERROR:: LoadInputFile:  For property name:[material 2]
ERROR:: LoadInputFile: 
ERROR:: LoadInputFile:  Unknown specifier: [density]
ERROR:: LoadInputFile:  In section: [material 1]
ERROR:: LoadInputFile:  For property name:[material 2]
ERROR:: LoadInputFile: 
ERROR:: LoadInputFile:  Unknown specifier: [density]
ERROR:: LoadInputFile:  In section: [material 1]
ERROR:: LoadInputFile:  For property name:[material 2]
ERROR:: LoadInputFile: 
ERROR:: LoadInputFile:  Unknown specifier: [density]
ERROR:: LoadInputFile:  In section: [material 1]
ERROR:: LoadInputFile:  For property name:[material 2]
ERROR:: LoadInputFile: 
ERROR:: LoadInputFile:  Unknown specifier: [density]
ERROR:: LoadInputFile:  In section: [material 1]
ERROR:: LoadInputFile:  For property name:[material 2]
ERROR:: LoadInputFile: 
ERROR:: LoadInputFile:  Unknown specifier: [density]
ERROR:: LoadInputFile:  In section: [material 1]
ERROR:: LoadInputFile:  For property name:[material 2]
