ELMER SOLVER (v 9.0) STARTED AT: 2021/03/18 14:23:45
ELMER SOLVER (v 9.0) STARTED AT: 2021/03/18 14:23:45
ELMER SOLVER (v 9.0) STARTED AT: 2021/03/18 14:23:45
ELMER SOLVER (v 9.0) STARTED AT: 2021/03/18 14:23:45
ELMER SOLVER (v 9.0) STARTED AT: 2021/03/18 14:23:45
ELMER SOLVER (v 9.0) STARTED AT: 2021/03/18 14:23:45
ELMER SOLVER (v 9.0) STARTED AT: 2021/03/18 14:23:45
ELMER SOLVER (v 9.0) STARTED AT: 2021/03/18 14:23:45
ELMER SOLVER (v 9.0) STARTED AT: 2021/03/18 14:23:45
ELMER SOLVER (v 9.0) STARTED AT: 2021/03/18 14:23:45
ELMER SOLVER (v 9.0) STARTED AT: 2021/03/18 14:23:45
ELMER SOLVER (v 9.0) STARTED AT: 2021/03/18 14:23:45
ELMER SOLVER (v 9.0) STARTED AT: 2021/03/18 14:23:45
ELMER SOLVER (v 9.0) STARTED AT: 2021/03/18 14:23:45
ELMER SOLVER (v 9.0) STARTED AT: 2021/03/18 14:23:45
ELMER SOLVER (v 9.0) STARTED AT: 2021/03/18 14:23:45
ELMER SOLVER (v 9.0) STARTED AT: 2021/03/18 14:23:45
ELMER SOLVER (v 9.0) STARTED AT: 2021/03/18 14:23:45
ELMER SOLVER (v 9.0) STARTED AT: 2021/03/18 14:23:45
ELMER SOLVER (v 9.0) STARTED AT: 2021/03/18 14:23:45
ELMER SOLVER (v 9.0) STARTED AT: 2021/03/18 14:23:45
ELMER SOLVER (v 9.0) STARTED AT: 2021/03/18 14:23:45
ELMER SOLVER (v 9.0) STARTED AT: 2021/03/18 14:23:45
ELMER SOLVER (v 9.0) STARTED AT: 2021/03/18 14:23:45
ELMER SOLVER (v 9.0) STARTED AT: 2021/03/18 14:23:45
ELMER SOLVER (v 9.0) STARTED AT: 2021/03/18 14:23:45
ELMER SOLVER (v 9.0) STARTED AT: 2021/03/18 14:23:45
ELMER SOLVER (v 9.0) STARTED AT: 2021/03/18 14:23:45
ELMER SOLVER (v 9.0) STARTED AT: 2021/03/18 14:23:45
ELMER SOLVER (v 9.0) STARTED AT: 2021/03/18 14:23:45
ELMER SOLVER (v 9.0) STARTED AT: 2021/03/18 14:23:45
ELMER SOLVER (v 9.0) STARTED AT: 2021/03/18 14:23:45
ELMER SOLVER (v 9.0) STARTED AT: 2021/03/18 14:23:45
ELMER SOLVER (v 9.0) STARTED AT: 2021/03/18 14:23:45
ELMER SOLVER (v 9.0) STARTED AT: 2021/03/18 14:23:45
ELMER SOLVER (v 9.0) STARTED AT: 2021/03/18 14:23:45
ELMER SOLVER (v 9.0) STARTED AT: 2021/03/18 14:23:45
ELMER SOLVER (v 9.0) STARTED AT: 2021/03/18 14:23:45
ELMER SOLVER (v 9.0) STARTED AT: 2021/03/18 14:23:45
ELMER SOLVER (v 9.0) STARTED AT: 2021/03/18 14:23:45
ELMER SOLVER (v 9.0) STARTED AT: 2021/03/18 14:23:45
ELMER SOLVER (v 9.0) STARTED AT: 2021/03/18 14:23:45
ELMER SOLVER (v 9.0) STARTED AT: 2021/03/18 14:23:45
ELMER SOLVER (v 9.0) STARTED AT: 2021/03/18 14:23:45
ELMER SOLVER (v 9.0) STARTED AT: 2021/03/18 14:23:45
ELMER SOLVER (v 9.0) STARTED AT: 2021/03/18 14:23:45
ELMER SOLVER (v 9.0) STARTED AT: 2021/03/18 14:23:45
ELMER SOLVER (v 9.0) STARTED AT: 2021/03/18 14:23:45
ELMER SOLVER (v 9.0) STARTED AT: 2021/03/18 14:23:45
ELMER SOLVER (v 9.0) STARTED AT: 2021/03/18 14:23:45
ELMER SOLVER (v 9.0) STARTED AT: 2021/03/18 14:23:45
ELMER SOLVER (v 9.0) STARTED AT: 2021/03/18 14:23:45
ELMER SOLVER (v 9.0) STARTED AT: 2021/03/18 14:23:45
ELMER SOLVER (v 9.0) STARTED AT: 2021/03/18 14:23:45
ELMER SOLVER (v 9.0) STARTED AT: 2021/03/18 14:23:45
ELMER SOLVER (v 9.0) STARTED AT: 2021/03/18 14:23:45
ELMER SOLVER (v 9.0) STARTED AT: 2021/03/18 14:23:45
ELMER SOLVER (v 9.0) STARTED AT: 2021/03/18 14:23:45
ELMER SOLVER (v 9.0) STARTED AT: 2021/03/18 14:23:45
ELMER SOLVER (v 9.0) STARTED AT: 2021/03/18 14:23:45
ELMER SOLVER (v 9.0) STARTED AT: 2021/03/18 14:23:45
ELMER SOLVER (v 9.0) STARTED AT: 2021/03/18 14:23:45
ELMER SOLVER (v 9.0) STARTED AT: 2021/03/18 14:23:45
ELMER SOLVER (v 9.0) STARTED AT: 2021/03/18 14:23:45
ELMER SOLVER (v 9.0) STARTED AT: 2021/03/18 14:23:45
ELMER SOLVER (v 9.0) STARTED AT: 2021/03/18 14:23:45
ELMER SOLVER (v 9.0) STARTED AT: 2021/03/18 14:23:45
ELMER SOLVER (v 9.0) STARTED AT: 2021/03/18 14:23:45
ELMER SOLVER (v 9.0) STARTED AT: 2021/03/18 14:23:45
ELMER SOLVER (v 9.0) STARTED AT: 2021/03/18 14:23:45
ELMER SOLVER (v 9.0) STARTED AT: 2021/03/18 14:23:45
ELMER SOLVER (v 9.0) STARTED AT: 2021/03/18 14:23:45
ELMER SOLVER (v 9.0) STARTED AT: 2021/03/18 14:23:45
ELMER SOLVER (v 9.0) STARTED AT: 2021/03/18 14:23:45
ELMER SOLVER (v 9.0) STARTED AT: 2021/03/18 14:23:45
ELMER SOLVER (v 9.0) STARTED AT: 2021/03/18 14:23:45
ELMER SOLVER (v 9.0) STARTED AT: 2021/03/18 14:23:45
ELMER SOLVER (v 9.0) STARTED AT: 2021/03/18 14:23:45
ELMER SOLVER (v 9.0) STARTED AT: 2021/03/18 14:23:45
ELMER SOLVER (v 9.0) STARTED AT: 2021/03/18 14:23:45
ELMER SOLVER (v 9.0) STARTED AT: 2021/03/18 14:23:45
ELMER SOLVER (v 9.0) STARTED AT: 2021/03/18 14:23:45
ELMER SOLVER (v 9.0) STARTED AT: 2021/03/18 14:23:45
ELMER SOLVER (v 9.0) STARTED AT: 2021/03/18 14:23:45
ELMER SOLVER (v 9.0) STARTED AT: 2021/03/18 14:23:45
ELMER SOLVER (v 9.0) STARTED AT: 2021/03/18 14:23:45
ELMER SOLVER (v 9.0) STARTED AT: 2021/03/18 14:23:45
ELMER SOLVER (v 9.0) STARTED AT: 2021/03/18 14:23:45
ELMER SOLVER (v 9.0) STARTED AT: 2021/03/18 14:23:45
ELMER SOLVER (v 9.0) STARTED AT: 2021/03/18 14:23:45
ELMER SOLVER (v 9.0) STARTED AT: 2021/03/18 14:23:45
ELMER SOLVER (v 9.0) STARTED AT: 2021/03/18 14:23:45
ELMER SOLVER (v 9.0) STARTED AT: 2021/03/18 14:23:45
ELMER SOLVER (v 9.0) STARTED AT: 2021/03/18 14:23:45
ELMER SOLVER (v 9.0) STARTED AT: 2021/03/18 14:23:45
ELMER SOLVER (v 9.0) STARTED AT: 2021/03/18 14:23:45
ELMER SOLVER (v 9.0) STARTED AT: 2021/03/18 14:23:45
ELMER SOLVER (v 9.0) STARTED AT: 2021/03/18 14:23:45
ELMER SOLVER (v 9.0) STARTED AT: 2021/03/18 14:23:45
ELMER SOLVER (v 9.0) STARTED AT: 2021/03/18 14:23:45
ELMER SOLVER (v 9.0) STARTED AT: 2021/03/18 14:23:45
ELMER SOLVER (v 9.0) STARTED AT: 2021/03/18 14:23:45
ELMER SOLVER (v 9.0) STARTED AT: 2021/03/18 14:23:45
ELMER SOLVER (v 9.0) STARTED AT: 2021/03/18 14:23:45
ELMER SOLVER (v 9.0) STARTED AT: 2021/03/18 14:23:45
ELMER SOLVER (v 9.0) STARTED AT: 2021/03/18 14:23:45
ELMER SOLVER (v 9.0) STARTED AT: 2021/03/18 14:23:45
ELMER SOLVER (v 9.0) STARTED AT: 2021/03/18 14:23:45
ELMER SOLVER (v 9.0) STARTED AT: 2021/03/18 14:23:45
ELMER SOLVER (v 9.0) STARTED AT: 2021/03/18 14:23:45
ELMER SOLVER (v 9.0) STARTED AT: 2021/03/18 14:23:45
ELMER SOLVER (v 9.0) STARTED AT: 2021/03/18 14:23:45
ELMER SOLVER (v 9.0) STARTED AT: 2021/03/18 14:23:45
ELMER SOLVER (v 9.0) STARTED AT: 2021/03/18 14:23:45
ELMER SOLVER (v 9.0) STARTED AT: 2021/03/18 14:23:45
ELMER SOLVER (v 9.0) STARTED AT: 2021/03/18 14:23:45
ELMER SOLVER (v 9.0) STARTED AT: 2021/03/18 14:23:45
ELMER SOLVER (v 9.0) STARTED AT: 2021/03/18 14:23:45
ELMER SOLVER (v 9.0) STARTED AT: 2021/03/18 14:23:45
ELMER SOLVER (v 9.0) STARTED AT: 2021/03/18 14:23:45
ELMER SOLVER (v 9.0) STARTED AT: 2021/03/18 14:23:45
ELMER SOLVER (v 9.0) STARTED AT: 2021/03/18 14:23:45
ELMER SOLVER (v 9.0) STARTED AT: 2021/03/18 14:23:45
ELMER SOLVER (v 9.0) STARTED AT: 2021/03/18 14:23:45
ELMER SOLVER (v 9.0) STARTED AT: 2021/03/18 14:23:45
ELMER SOLVER (v 9.0) STARTED AT: 2021/03/18 14:23:45
ELMER SOLVER (v 9.0) STARTED AT: 2021/03/18 14:23:45
ELMER SOLVER (v 9.0) STARTED AT: 2021/03/18 14:23:45
ParCommInit:  Initialize #PEs:          128
ParCommInit:  Initialize #PEs:          128
ParCommInit:  Initialize #PEs:          128
ParCommInit:  Initialize #PEs:          128
ParCommInit:  Initialize #PEs:          128
ParCommInit:  Initialize #PEs:          128
ParCommInit:  Initialize #PEs:          128
ParCommInit:  Initialize #PEs:          128
ParCommInit:  Initialize #PEs:          128
ParCommInit:  Initialize #PEs:          128
ParCommInit:  Initialize #PEs:          128
ParCommInit:  Initialize #PEs:          128
ParCommInit:  Initialize #PEs:          128
ParCommInit:  Initialize #PEs:          128
ParCommInit:  Initialize #PEs:          128
ParCommInit:  Initialize #PEs:          128
ParCommInit:  Initialize #PEs:          128
ParCommInit:  Initialize #PEs:          128
ParCommInit:  Initialize #PEs:          128
ParCommInit:  Initialize #PEs:          128
ParCommInit:  Initialize #PEs:          128
ParCommInit:  Initialize #PEs:          128
ParCommInit:  Initialize #PEs:          128
ParCommInit:  Initialize #PEs:          128
ParCommInit:  Initialize #PEs:          128
ParCommInit:  Initialize #PEs:          128
ParCommInit:  Initialize #PEs:          128
ParCommInit:  Initialize #PEs:          128
ParCommInit:  Initialize #PEs:          128
ParCommInit:  Initialize #PEs:          128
ParCommInit:  Initialize #PEs:          128
ParCommInit:  Initialize #PEs:          128
ParCommInit:  Initialize #PEs:          128
ParCommInit:  Initialize #PEs:          128
ParCommInit:  Initialize #PEs:          128
ParCommInit:  Initialize #PEs:          128
ParCommInit:  Initialize #PEs:          128
ParCommInit:  Initialize #PEs:          128
ParCommInit:  Initialize #PEs:          128
ParCommInit:  Initialize #PEs:          128
ParCommInit:  Initialize #PEs:          128
ParCommInit:  Initialize #PEs:          128
ParCommInit:  Initialize #PEs:          128
ParCommInit:  Initialize #PEs:          128
ParCommInit:  Initialize #PEs:          128
ParCommInit:  Initialize #PEs:          128
ParCommInit:  Initialize #PEs:          128
ParCommInit:  Initialize #PEs:          128
ParCommInit:  Initialize #PEs:          128
ParCommInit:  Initialize #PEs:          128
ParCommInit:  Initialize #PEs:          128
ParCommInit:  Initialize #PEs:          128
ParCommInit:  Initialize #PEs:          128
ParCommInit:  Initialize #PEs:          128
ParCommInit:  Initialize #PEs:          128
ParCommInit:  Initialize #PEs:          128
ParCommInit:  Initialize #PEs:          128
ParCommInit:  Initialize #PEs:          128
ParCommInit:  Initialize #PEs:          128
ParCommInit:  Initialize #PEs:          128
ParCommInit:  Initialize #PEs:          128
ParCommInit:  Initialize #PEs:          128
ParCommInit:  Initialize #PEs:          128
ParCommInit:  Initialize #PEs:          128
ParCommInit:  Initialize #PEs:          128
ParCommInit:  Initialize #PEs:          128
ParCommInit:  Initialize #PEs:          128
ParCommInit:  Initialize #PEs:          128
ParCommInit:  Initialize #PEs:          128
ParCommInit:  Initialize #PEs:          128
ParCommInit:  Initialize #PEs:          128
ParCommInit:  Initialize #PEs:          128
ParCommInit:  Initialize #PEs:          128
ParCommInit:  Initialize #PEs:          128
ParCommInit:  Initialize #PEs:          128
ParCommInit:  Initialize #PEs:          128
ParCommInit:  Initialize #PEs:          128
ParCommInit:  Initialize #PEs:          128
ParCommInit:  Initialize #PEs:          128
ParCommInit:  Initialize #PEs:          128
MAIN: 
ParCommInit:  Initialize #PEs:          128
ParCommInit:  Initialize #PEs:          128
ParCommInit:  Initialize #PEs:          128
ParCommInit:  Initialize #PEs:          128
ParCommInit:  Initialize #PEs:          128
ParCommInit:  Initialize #PEs:          128
ParCommInit:  Initialize #PEs:          128
ParCommInit:  Initialize #PEs:          128
ParCommInit:  Initialize #PEs:          128
ParCommInit:  Initialize #PEs:          128
ParCommInit:  Initialize #PEs:          128
ParCommInit:  Initialize #PEs:          128
ParCommInit:  Initialize #PEs:          128
ParCommInit:  Initialize #PEs:          128
ParCommInit:  Initialize #PEs:          128
ParCommInit:  Initialize #PEs:          128
ParCommInit:  Initialize #PEs:          128
ParCommInit:  Initialize #PEs:          128
ParCommInit:  Initialize #PEs:          128
ParCommInit:  Initialize #PEs:          128
ParCommInit:  Initialize #PEs:          128
ParCommInit:  Initialize #PEs:          128
ParCommInit:  Initialize #PEs:          128
ParCommInit:  Initialize #PEs:          128
ParCommInit:  Initialize #PEs:          128
ParCommInit:  Initialize #PEs:          128
ParCommInit:  Initialize #PEs:          128
ParCommInit:  Initialize #PEs:          128
ParCommInit:  Initialize #PEs:          128
ParCommInit:  Initialize #PEs:          128
ParCommInit:  Initialize #PEs:          128
ParCommInit:  Initialize #PEs:          128
ParCommInit:  Initialize #PEs:          128
ParCommInit:  Initialize #PEs:          128
ParCommInit:  Initialize #PEs:          128
ParCommInit:  Initialize #PEs:          128
ParCommInit:  Initialize #PEs:          128
ParCommInit:  Initialize #PEs:          128
ParCommInit:  Initialize #PEs:          128
ParCommInit:  Initialize #PEs:          128
ParCommInit:  Initialize #PEs:          128
ParCommInit:  Initialize #PEs:          128
ParCommInit:  Initialize #PEs:          128
ParCommInit:  Initialize #PEs:          128
ParCommInit:  Initialize #PEs:          128
ParCommInit:  Initialize #PEs:          128
ParCommInit:  Initialize #PEs:          128
ParCommInit:  Initialize #PEs:          128
MAIN: =============================================================
MAIN: ElmerSolver finite element software, Welcome!
MAIN: This program is free software licensed under (L)GPL
MAIN: Copyright 1st April 1995 - , CSC - IT Center for Science Ltd.
MAIN: Webpage http://www.csc.fi/elmer, Email elmeradm@csc.fi
MAIN: Version: 9.0 (Rev: fee0e53, Compiled: 2021-02-27)
MAIN:  Running in parallel using 128 tasks.
MAIN:  Running with just one thread per task.
MAIN:  HYPRE library linked in.
MAIN:  MUMPS library linked in.
MAIN:  Lua interpreted linked in.
MAIN: =============================================================
LoadInputFile: Trying to read "Run Control" section only
MAIN: 
MAIN: 
MAIN: -------------------------------------
MAIN: Reading Model: dV_TG_S1.sif
LoadInputFile: Scanning input file: dV_TG_S1.sif
LoadInputFile: Scanning only size info
LoadInputFile: First time visiting
LoadInputFile: Reading base load of sif file
LoadInputFile: Loading input file: dV_TG_S1.sif
LoadInputFile: Reading base load of sif file
CheckKeyword:  Unlisted keyword: [vobs] in section: [body force 1]
CheckKeyword:  Unlisted keyword: [read full array] in section: [solver 1]
CheckKeyword:  Unlisted keyword: [x dim name] in section: [solver 1]
CheckKeyword:  Unlisted keyword: [y dim name] in section: [solver 1]
CheckKeyword:  Unlisted keyword: [x var name] in section: [solver 1]
CheckKeyword:  Unlisted keyword: [y var name] in section: [solver 1]
CheckKeyword:  Unlisted keyword: [epsilon x] in section: [solver 1]
CheckKeyword:  Unlisted keyword: [epsilon y] in section: [solver 1]
CheckKeyword:  Unlisted keyword: [enable scaling] in section: [solver 1]
CheckKeyword:  Unlisted keyword: [variable name] in section: [solver 3]
CheckKeyword:  Unlisted keyword: [read full array] in section: [solver 4]
CheckKeyword:  Unlisted keyword: [x dim name] in section: [solver 4]
CheckKeyword:  Unlisted keyword: [y dim name] in section: [solver 4]
CheckKeyword:  Unlisted keyword: [x var name] in section: [solver 4]
CheckKeyword:  Unlisted keyword: [y var name] in section: [solver 4]
CheckKeyword:  Unlisted keyword: [epsilon x] in section: [solver 4]
CheckKeyword:  Unlisted keyword: [epsilon y] in section: [solver 4]
CheckKeyword:  Unlisted keyword: [enable scaling] in section: [solver 4]
CheckKeyword:  Unlisted keyword: [read full array] in section: [solver 5]
CheckKeyword:  Unlisted keyword: [x dim name] in section: [solver 5]
CheckKeyword:  Unlisted keyword: [y dim name] in section: [solver 5]
CheckKeyword:  Unlisted keyword: [x var name] in section: [solver 5]
CheckKeyword:  Unlisted keyword: [y var name] in section: [solver 5]
CheckKeyword:  Unlisted keyword: [x epsilon] in section: [solver 5]
CheckKeyword:  Unlisted keyword: [y epsilon] in section: [solver 5]
CheckKeyword:  Unlisted keyword: [read full array] in section: [solver 6]
CheckKeyword:  Unlisted keyword: [x dim name] in section: [solver 6]
CheckKeyword:  Unlisted keyword: [y dim name] in section: [solver 6]
CheckKeyword:  Unlisted keyword: [x var name] in section: [solver 6]
CheckKeyword:  Unlisted keyword: [y var name] in section: [solver 6]
CheckKeyword:  Unlisted keyword: [epsilon x] in section: [solver 6]
CheckKeyword:  Unlisted keyword: [epsilon y] in section: [solver 6]
CheckKeyword:  Unlisted keyword: [enable scaling] in section: [solver 6]
CheckKeyword:  Unlisted keyword: [x dim name] in section: [solver 7]
CheckKeyword:  Unlisted keyword: [y dim name] in section: [solver 7]
CheckKeyword:  Unlisted keyword: [x var name] in section: [solver 7]
CheckKeyword:  Unlisted keyword: [y var name] in section: [solver 7]
CheckKeyword:  Unlisted keyword: [epsilon x] in section: [solver 7]
CheckKeyword:  Unlisted keyword: [epsilon y] in section: [solver 7]
CheckKeyword:  Unlisted keyword: [enable scaling] in section: [solver 7]
WARNING:: LoadInputFile: There are no BCs in the system!
WARNING:: LoadInputFile: There are no BCs in the system!
WARNING:: LoadInputFile: There are no BCs in the system!
WARNING:: LoadInputFile: There are no BCs in the system!
WARNING:: LoadInputFile: There are no BCs in the system!
WARNING:: LoadInputFile: There are no BCs in the system!
WARNING:: LoadInputFile: There are no BCs in the system!
WARNING:: LoadInputFile: There are no BCs in the system!
WARNING:: LoadInputFile: There are no BCs in the system!
WARNING:: LoadInputFile: There are no BCs in the system!
WARNING:: LoadInputFile: There are no BCs in the system!
WARNING:: LoadInputFile: There are no BCs in the system!
WARNING:: LoadInputFile: There are no BCs in the system!
WARNING:: LoadInputFile: There are no BCs in the system!
WARNING:: LoadInputFile: There are no BCs in the system!
WARNING:: LoadInputFile: There are no BCs in the system!
WARNING:: LoadInputFile: There are no BCs in the system!
WARNING:: LoadInputFile: There are no BCs in the system!
WARNING:: LoadInputFile: There are no BCs in the system!
WARNING:: LoadInputFile: There are no BCs in the system!
WARNING:: LoadInputFile: There are no BCs in the system!
WARNING:: LoadInputFile: There are no BCs in the system!
WARNING:: LoadInputFile: There are no BCs in the system!
WARNING:: LoadInputFile: There are no BCs in the system!
WARNING:: LoadInputFile: There are no BCs in the system!
WARNING:: LoadInputFile: There are no BCs in the system!
WARNING:: LoadInputFile: There are no BCs in the system!
WARNING:: LoadInputFile: There are no BCs in the system!
WARNING:: LoadInputFile: There are no BCs in the system!
WARNING:: LoadInputFile: There are no BCs in the system!
WARNING:: LoadInputFile: There are no BCs in the system!
WARNING:: LoadInputFile: There are no BCs in the system!
WARNING:: LoadInputFile: There are no BCs in the system!
WARNING:: LoadInputFile: There are no BCs in the system!
WARNING:: LoadInputFile: There are no BCs in the system!
WARNING:: LoadInputFile: There are no BCs in the system!
WARNING:: LoadInputFile: There are no BCs in the system!
WARNING:: LoadInputFile: There are no BCs in the system!
WARNING:: LoadInputFile: There are no BCs in the system!
WARNING:: LoadInputFile: There are no BCs in the system!
WARNING:: LoadInputFile: There are no BCs in the system!
WARNING:: LoadInputFile: There are no BCs in the system!
WARNING:: LoadInputFile: There are no BCs in the system!
WARNING:: LoadInputFile: There are no BCs in the system!
WARNING:: LoadInputFile: There are no BCs in the system!
WARNING:: LoadInputFile: There are no BCs in the system!
WARNING:: LoadInputFile: There are no BCs in the system!
WARNING:: LoadInputFile: There are no BCs in the system!
WARNING:: LoadInputFile: There are no BCs in the system!
LoadInputFile: Number of Body Forces: 1
LoadInputFile: Number of Initial Conditions: 0
LoadInputFile: Number of Materials: 1
LoadInputFile: Number of Equations: 1
LoadInputFile: Number of Solvers: 8
LoadInputFile: Number of Bodies: 1
WARNING:: LoadInputFile: There are no BCs in the system!
WARNING:: LoadInputFile: There are no BCs in the system!
WARNING:: LoadInputFile: There are no BCs in the system!
WARNING:: LoadInputFile: There are no BCs in the system!
WARNING:: LoadInputFile: There are no BCs in the system!
WARNING:: LoadInputFile: There are no BCs in the system!
WARNING:: LoadInputFile: There are no BCs in the system!
WARNING:: LoadInputFile: There are no BCs in the system!
WARNING:: LoadInputFile: There are no BCs in the system!
WARNING:: LoadInputFile: There are no BCs in the system!
WARNING:: LoadInputFile: There are no BCs in the system!
WARNING:: LoadInputFile: There are no BCs in the system!
WARNING:: LoadInputFile: There are no BCs in the system!
WARNING:: LoadInputFile: There are no BCs in the system!
WARNING:: LoadInputFile: There are no BCs in the system!
WARNING:: LoadInputFile: There are no BCs in the system!
WARNING:: LoadInputFile: There are no BCs in the system!
WARNING:: LoadInputFile: There are no BCs in the system!
WARNING:: LoadInputFile: There are no BCs in the system!
WARNING:: LoadInputFile: There are no BCs in the system!
WARNING:: LoadInputFile: There are no BCs in the system!
WARNING:: LoadInputFile: There are no BCs in the system!
WARNING:: LoadInputFile: There are no BCs in the system!
WARNING:: LoadInputFile: There are no BCs in the system!
WARNING:: LoadInputFile: There are no BCs in the system!
WARNING:: LoadInputFile: There are no BCs in the system!
WARNING:: LoadInputFile: There are no BCs in the system!
WARNING:: LoadInputFile: There are no BCs in the system!
WARNING:: LoadInputFile: There are no BCs in the system!
WARNING:: LoadInputFile: There are no BCs in the system!
WARNING:: LoadInputFile: There are no BCs in the system!
WARNING:: LoadInputFile: There are no BCs in the system!
WARNING:: LoadInputFile: There are no BCs in the system!
WARNING:: LoadInputFile: There are no BCs in the system!
WARNING:: LoadInputFile: There are no BCs in the system!
WARNING:: LoadInputFile: There are no BCs in the system!
WARNING:: LoadInputFile: There are no BCs in the system!
WARNING:: LoadInputFile: There are no BCs in the system!
WARNING:: LoadInputFile: There are no BCs in the system!
WARNING:: LoadInputFile: There are no BCs in the system!
WARNING:: LoadInputFile: There are no BCs in the system!
WARNING:: LoadInputFile: There are no BCs in the system!
WARNING:: LoadInputFile: There are no BCs in the system!
WARNING:: LoadInputFile: There are no BCs in the system!
WARNING:: LoadInputFile: There are no BCs in the system!
WARNING:: LoadInputFile: There are no BCs in the system!
WARNING:: LoadInputFile: There are no BCs in the system!
WARNING:: LoadInputFile: There are no BCs in the system!
WARNING:: LoadInputFile: There are no BCs in the system!
WARNING:: LoadInputFile: There are no BCs in the system!
WARNING:: LoadInputFile: There are no BCs in the system!
WARNING:: LoadInputFile: There are no BCs in the system!
WARNING:: LoadInputFile: There are no BCs in the system!
WARNING:: LoadInputFile: There are no BCs in the system!
WARNING:: LoadInputFile: There are no BCs in the system!
WARNING:: LoadInputFile: There are no BCs in the system!
WARNING:: LoadInputFile: There are no BCs in the system!
WARNING:: LoadInputFile: There are no BCs in the system!
WARNING:: LoadInputFile: There are no BCs in the system!
WARNING:: LoadInputFile: There are no BCs in the system!
WARNING:: LoadInputFile: There are no BCs in the system!
WARNING:: LoadInputFile: There are no BCs in the system!
WARNING:: LoadInputFile: There are no BCs in the system!
WARNING:: LoadInputFile: There are no BCs in the system!
WARNING:: LoadInputFile: There are no BCs in the system!
WARNING:: LoadInputFile: There are no BCs in the system!
WARNING:: LoadInputFile: There are no BCs in the system!
WARNING:: LoadInputFile: There are no BCs in the system!
WARNING:: LoadInputFile: There are no BCs in the system!
WARNING:: LoadInputFile: There are no BCs in the system!
WARNING:: LoadInputFile: There are no BCs in the system!
WARNING:: LoadInputFile: There are no BCs in the system!
WARNING:: LoadInputFile: There are no BCs in the system!
WARNING:: LoadInputFile: There are no BCs in the system!
WARNING:: LoadInputFile: There are no BCs in the system!
WARNING:: LoadInputFile: There are no BCs in the system!
WARNING:: LoadInputFile: There are no BCs in the system!
WARNING:: LoadInputFile: There are no BCs in the system!
WARNING:: LoadInputFile: There are no BCs in the system!
Loading user function library: [GridDataReader]...[GridDataReader_Init0]
Loading user function library: [ElmerIceSolvers]...[UpdateExport_Init0]
Loading user function library: [ElmerIce_MeshAdapt2D]...[Compute2DNodalGradient_Init0]
Loading user function library: [GridDataReader]...[GridDataReader_Init0]
Loading user function library: [GridDataReader]...[GridDataReader_Init0]
Loading user function library: [GridDataReader]...[GridDataReader_Init0]
Loading user function library: [GridDataReader]...[GridDataReader_Init0]
Loading user function library: [ResultOutputSolve]...[ResultOutputSolver_Init0]
LoadMesh: Starting
ElmerAsciiMesh: Performing step: 1
ElmerAsciiMesh: Base mesh name: ./../mesh2D_TG_refpart/
InitializeMesh: Number of nodes in mesh: 365
InitializeMesh: Number of bulk elements in mesh: 649
InitializeMesh: Number of boundary elements in mesh: 16
ElmerAsciiMesh: Performing step: 2
SetMeshDimension: Dimension of mesh is: 2
SetMeshDimension: Max dimension of mesh is: 2
ElmerAsciiMesh: Performing step: 3
ElmerAsciiMesh: Performing step: 4
PermuteNodeNumbering: Performing node mapping
MapBodiesAndBCs: Remapping boundaries
MapBodiesAndBCs: Minimum initial boundary index: 2
MapBodiesAndBCs: Maximum initial boundary index: 2
ElmerAsciiMesh: Performing step: 5
ElmerAsciiMesh: Performing step: 6
LoadMesh: Loading mesh done
LoadMesh: Preparing mesh done
LoadMesh: Elapsed REAL time:     0.0739 (s)
MeshStabParams: Computing stabilization parameters
MeshStabParams: Elapsed REAL time:     0.0001 (s)
MAIN: -------------------------------------
AddEquationBasics: Setting up solver: read observed velocity
Loading user function library: [GridDataReader]...[GridDataReader_Init]
Loading user function library: [GridDataReader]...[GridDataReader_bulk]
Loading user function library: [GridDataReader]...[GridDataReader]
AddEquationBasics: Setting up solver: updateexportedvars
Loading user function library: [ElmerIceSolvers]...[UpdateExport_Init]
Loading user function library: [ElmerIceSolvers]...[UpdateExport_bulk]
Loading user function library: [ElmerIceSolvers]...[UpdateExport]
AddEquationBasics: Creating standard variable: dumy
OptimizeBandwidth: ---------------------------------------------------------
OptimizeBandwidth: Computing matrix structure for: updateexportedvars...done.
OptimizeBandwidth: Half bandwidth without optimization: 354
OptimizeBandwidth: ---------------------------------------------------------
AddEquationBasics: Setting up solver: nodal gradient
Loading user function library: [ElmerIce_MeshAdapt2D]...[Compute2DNodalGradient_Init]
Loading user function library: [ElmerIce_MeshAdapt2D]...[Compute2DNodalGradient_bulk]
Loading user function library: [ElmerIce_MeshAdapt2D]...[Compute2DNodalGradient]
AddEquationBasics: Creating standard variable: dvu
OptimizeBandwidth: ---------------------------------------------------------
OptimizeBandwidth: Computing matrix structure for: nodal gradient...done.
OptimizeBandwidth: Half bandwidth without optimization: 354
OptimizeBandwidth: ---------------------------------------------------------
AddEquationBasics: Setting up solver: read geometry
Loading user function library: [GridDataReader]...[GridDataReader_Init]
Loading user function library: [GridDataReader]...[GridDataReader_bulk]
Loading user function library: [GridDataReader]...[GridDataReader]
AddEquationBasics: Setting up solver: read ghf
Loading user function library: [GridDataReader]...[GridDataReader_Init]
Loading user function library: [GridDataReader]...[GridDataReader_bulk]
Loading user function library: [GridDataReader]...[GridDataReader]
AddEquationBasics: Setting up solver: read old drag coefficient
Loading user function library: [GridDataReader]...[GridDataReader_Init]
Loading user function library: [GridDataReader]...[GridDataReader_bulk]
Loading user function library: [GridDataReader]...[GridDataReader]
AddEquationBasics: Setting up solver: read surface mass balance
Loading user function library: [GridDataReader]...[GridDataReader_Init]
Loading user function library: [GridDataReader]...[GridDataReader_bulk]
Loading user function library: [GridDataReader]...[GridDataReader]
AddEquationBasics: Setting up solver: resultoutput
Loading user function library: [ResultOutputSolve]...[ResultOutputSolver_Init]
Loading user function library: [ResultOutputSolve]...[ResultOutputSolver_bulk]
Loading user function library: [ResultOutputSolve]...[ResultOutputSolver]
ElmerSolver: Number of timesteps to be saved: 1
SingleSolver: Attempting to call solver
SingleSolver: Solver Equation string is: read observed velocity
GridDataReader: -----------------------------------------
GridDataReader: Obtaining field(s) from grid NetCDF format
GridDataReader: Keyword > X Epsilon < not given, setting to default eps
GridDataReader: Keyword > Y Epsilon < not given, setting equal to > X Epsilon <
GridDataReader: Keyword > Z Epsilon < not given, setting equal to > X Epsilon <
GridDataReader: Found 1 dimensional coordinate variable > x_coords < : 1
GridDataReader: Found dimension > x_coords < with id 1 and size 12445
GridDataReader: Grid parameter of dimension > x_coords < is    4.500E+02
GridDataReader: Range of dimension > x_coords < is [  -2.800E+06   2.800E+06]
GridDataReader: Found 1 dimensional coordinate variable > y_coords < : 1
GridDataReader: Found dimension > y_coords < with id 2 and size 12445
GridDataReader: Grid parameter of dimension > y_coords < is   -4.500E+02
GridDataReader: Range of dimension > y_coords < is [   2.800E+06  -2.800E+06]
GridDataReader: No time given, using 1st step
GridDataReader: Performing interpolation for variable: vx
GridDataReader: Reading full variable array from NETCDF file
GridDataReader: Number of proper mappings  : 365
GridDataReader: Performing interpolation for variable: vy
GridDataReader: Reading full variable array from NETCDF file
GridDataReader: Number of proper mappings  : 365
GridDataReader: Elapsed REAL time:     8.5824 (s)
GridDataReader: All done
GridDataReader: -----------------------------------------
Loading user function library: [GridDataReader]...[GridDataReader_post]
SingleSolver: Attempting to call solver
SingleSolver: Solver Equation string is: read geometry
GridDataReader: -----------------------------------------
GridDataReader: Obtaining field(s) from grid NetCDF format
GridDataReader: Keyword > X Epsilon < not given, setting to default eps
GridDataReader: Keyword > Y Epsilon < not given, setting equal to > X Epsilon <
GridDataReader: Keyword > Z Epsilon < not given, setting equal to > X Epsilon <
GridDataReader: Found 1 dimensional coordinate variable > x < : 1
GridDataReader: Found dimension > x < with id 1 and size 13333
GridDataReader: Grid parameter of dimension > x < is    5.000E+02
GridDataReader: Range of dimension > x < is [  -3.333E+06   3.333E+06]
GridDataReader: Found 1 dimensional coordinate variable > y < : 1
GridDataReader: Found dimension > y < with id 2 and size 13333
GridDataReader: Grid parameter of dimension > y < is   -5.000E+02
GridDataReader: Range of dimension > y < is [   3.333E+06  -3.333E+06]
GridDataReader: No time given, using 1st step
GridDataReader: Performing interpolation for variable: surface
GridDataReader: Number of proper mappings  : 365
GridDataReader: Performing interpolation for variable: bed
GridDataReader: Number of proper mappings  : 365
GridDataReader: Performing interpolation for variable: thickness
GridDataReader: Number of proper mappings  : 365
GridDataReader: Elapsed REAL time:    16.1727 (s)
GridDataReader: All done
GridDataReader: -----------------------------------------
Loading user function library: [GridDataReader]...[GridDataReader_post]
SingleSolver: Attempting to call solver
SingleSolver: Solver Equation string is: read old drag coefficient
GridDataReader: -----------------------------------------
GridDataReader: Obtaining field(s) from grid NetCDF format
GridDataReader: Keyword > X Epsilon < not given, setting to default eps
GridDataReader: Keyword > Y Epsilon < not given, setting equal to > X Epsilon <
GridDataReader: Keyword > Z Epsilon < not given, setting equal to > X Epsilon <
GridDataReader: Found 1 dimensional coordinate variable > x < : 1
GridDataReader: Found dimension > x < with id 1 and size 2627
GridDataReader: Grid parameter of dimension > x < is    2.000E+03
GridDataReader: Range of dimension > x < is [  -2.507E+06   2.746E+06]
GridDataReader: Found 1 dimensional coordinate variable > y < : 1
GridDataReader: Found dimension > y < with id 2 and size 2192
GridDataReader: Grid parameter of dimension > y < is    2.001E+03
GridDataReader: Range of dimension > y < is [  -2.142E+06   2.241E+06]
GridDataReader: No time given, using 1st step
GridDataReader: Performing interpolation for variable: beta
GridDataReader: Number of proper mappings  : 365
GridDataReader: Elapsed REAL time:     0.0662 (s)
GridDataReader: All done
GridDataReader: -----------------------------------------
Loading user function library: [GridDataReader]...[GridDataReader_post]
SingleSolver: Attempting to call solver
SingleSolver: Solver Equation string is: read surface mass balance
GridDataReader: -----------------------------------------
GridDataReader: Obtaining field(s) from grid NetCDF format
GridDataReader: Keyword > X Epsilon < not given, setting to default eps
GridDataReader: Keyword > Y Epsilon < not given, setting equal to > X Epsilon <
GridDataReader: Keyword > Z Epsilon < not given, setting equal to > X Epsilon <
WARNING:: ListFind: 
WARNING:: ListFind:  Requested property: [Read full array], not found
WARNING:: ListFind: 
WARNING:: ListFind: 
WARNING:: ListFind:  Requested property: [Read full array], not found
WARNING:: ListFind: 
WARNING:: ListFind: 
WARNING:: ListFind:  Requested property: [Read full array], not found
WARNING:: ListFind: 
WARNING:: ListFind: 
WARNING:: ListFind:  Requested property: [Read full array], not found
WARNING:: ListFind: 
WARNING:: ListFind: 
WARNING:: ListFind:  Requested property: [Read full array], not found
WARNING:: ListFind: 
WARNING:: ListFind: 
WARNING:: ListFind:  Requested property: [Read full array], not found
WARNING:: ListFind: 
WARNING:: ListFind: 
WARNING:: ListFind:  Requested property: [Read full array], not found
WARNING:: ListFind: 
WARNING:: ListFind: 
WARNING:: ListFind:  Requested property: [Read full array], not found
WARNING:: ListFind: 
WARNING:: ListFind: 
WARNING:: ListFind:  Requested property: [Read full array], not found
WARNING:: ListFind: 
WARNING:: ListFind: 
WARNING:: ListFind:  Requested property: [Read full array], not found
WARNING:: ListFind: 
WARNING:: ListFind: 
WARNING:: ListFind:  Requested property: [Read full array], not found
WARNING:: ListFind: 
WARNING:: ListFind: 
WARNING:: ListFind:  Requested property: [Read full array], not found
WARNING:: ListFind: 
WARNING:: ListFind: 
WARNING:: ListFind:  Requested property: [Read full array], not found
WARNING:: ListFind: 
WARNING:: ListFind: 
WARNING:: ListFind:  Requested property: [Read full array], not found
WARNING:: ListFind: 
WARNING:: ListFind: 
WARNING:: ListFind:  Requested property: [Read full array], not found
WARNING:: ListFind: 
WARNING:: ListFind: 
WARNING:: ListFind:  Requested property: [Read full array], not found
WARNING:: ListFind: 
WARNING:: ListFind: 
WARNING:: ListFind:  Requested property: [Read full array], not found
WARNING:: ListFind: 
WARNING:: ListFind: 
WARNING:: ListFind:  Requested property: [Read full array], not found
WARNING:: ListFind: 
WARNING:: ListFind: 
WARNING:: ListFind:  Requested property: [Read full array], not found
WARNING:: ListFind: 
WARNING:: ListFind: 
WARNING:: ListFind:  Requested property: [Read full array], not found
WARNING:: ListFind: 
WARNING:: ListFind: 
WARNING:: ListFind:  Requested property: [Read full array], not found
WARNING:: ListFind: 
WARNING:: ListFind: 
WARNING:: ListFind:  Requested property: [Read full array], not found
WARNING:: ListFind: 
WARNING:: ListFind: 
WARNING:: ListFind:  Requested property: [Read full array], not found
WARNING:: ListFind: 
WARNING:: ListFind: 
WARNING:: ListFind:  Requested property: [Read full array], not found
WARNING:: ListFind: 
WARNING:: ListFind: 
WARNING:: ListFind:  Requested property: [Read full array], not found
WARNING:: ListFind: 
WARNING:: ListFind: 
WARNING:: ListFind:  Requested property: [Read full array], not found
WARNING:: ListFind: 
WARNING:: ListFind: 
WARNING:: ListFind:  Requested property: [Read full array], not found
WARNING:: ListFind: 
WARNING:: ListFind: 
WARNING:: ListFind:  Requested property: [Read full array], not found
WARNING:: ListFind: 
WARNING:: ListFind: 
WARNING:: ListFind:  Requested property: [Read full array], not found
WARNING:: ListFind: 
WARNING:: ListFind: 
WARNING:: ListFind:  Requested property: [Read full array], not found
WARNING:: ListFind: 
WARNING:: ListFind: 
WARNING:: ListFind:  Requested property: [Read full array], not found
WARNING:: ListFind: 
WARNING:: ListFind: 
WARNING:: ListFind:  Requested property: [Read full array], not found
WARNING:: ListFind: 
WARNING:: ListFind: 
WARNING:: ListFind:  Requested property: [Read full array], not found
WARNING:: ListFind: 
WARNING:: ListFind: 
WARNING:: ListFind:  Requested property: [Read full array], not found
WARNING:: ListFind: 
WARNING:: ListFind: 
WARNING:: ListFind:  Requested property: [Read full array], not found
WARNING:: ListFind: 
WARNING:: ListFind: 
WARNING:: ListFind:  Requested property: [Read full array], not found
WARNING:: ListFind: 
WARNING:: ListFind: 
WARNING:: ListFind:  Requested property: [Read full array], not found
WARNING:: ListFind: 
WARNING:: ListFind: 
WARNING:: ListFind:  Requested property: [Read full array], not found
WARNING:: ListFind: 
WARNING:: ListFind: 
WARNING:: ListFind:  Requested property: [Read full array], not found
WARNING:: ListFind: 
WARNING:: ListFind: 
WARNING:: ListFind:  Requested property: [Read full array], not found
WARNING:: ListFind: 
WARNING:: ListFind: 
WARNING:: ListFind:  Requested property: [Read full array], not found
WARNING:: ListFind: 
WARNING:: ListFind: 
WARNING:: ListFind:  Requested property: [Read full array], not found
WARNING:: ListFind: 
WARNING:: ListFind: 
WARNING:: ListFind:  Requested property: [Read full array], not found
WARNING:: ListFind: 
WARNING:: ListFind: 
WARNING:: ListFind:  Requested property: [Read full array], not found
WARNING:: ListFind: 
WARNING:: ListFind: 
WARNING:: ListFind:  Requested property: [Read full array], not found
WARNING:: ListFind: 
WARNING:: ListFind: 
WARNING:: ListFind:  Requested property: [Read full array], not found
WARNING:: ListFind: 
WARNING:: ListFind: 
WARNING:: ListFind:  Requested property: [Read full array], not found
WARNING:: ListFind: 
WARNING:: ListFind: 
WARNING:: ListFind:  Requested property: [Read full array], not found
WARNING:: ListFind: 
WARNING:: ListFind: 
WARNING:: ListFind:  Requested property: [Read full array], not found
WARNING:: ListFind: 
WARNING:: ListFind: 
WARNING:: ListFind:  Requested property: [Read full array], not found
WARNING:: ListFind: 
WARNING:: ListFind: 
WARNING:: ListFind:  Requested property: [Read full array], not found
WARNING:: ListFind: 
WARNING:: ListFind: 
WARNING:: ListFind:  Requested property: [Read full array], not found
WARNING:: ListFind: 
WARNING:: ListFind: 
WARNING:: ListFind:  Requested property: [Read full array], not found
WARNING:: ListFind: 
WARNING:: ListFind: 
WARNING:: ListFind:  Requested property: [Read full array], not found
WARNING:: ListFind: 
WARNING:: ListFind: 
WARNING:: ListFind:  Requested property: [Read full array], not found
WARNING:: ListFind: 
WARNING:: ListFind: 
WARNING:: ListFind:  Requested property: [Read full array], not found
WARNING:: ListFind: 
WARNING:: ListFind: 
WARNING:: ListFind:  Requested property: [Read full array], not found
WARNING:: ListFind: 
WARNING:: ListFind: 
WARNING:: ListFind:  Requested property: [Read full array], not found
WARNING:: ListFind: 
WARNING:: ListFind: 
WARNING:: ListFind:  Requested property: [Read full array], not found
WARNING:: ListFind: 
WARNING:: ListFind: 
WARNING:: ListFind:  Requested property: [Read full array], not found
WARNING:: ListFind: 
WARNING:: ListFind: 
WARNING:: ListFind:  Requested property: [Read full array], not found
WARNING:: ListFind: 
WARNING:: ListFind: 
WARNING:: ListFind:  Requested property: [Read full array], not found
WARNING:: ListFind: 
WARNING:: ListFind: 
WARNING:: ListFind:  Requested property: [Read full array], not found
WARNING:: ListFind: 
WARNING:: ListFind: 
WARNING:: ListFind:  Requested property: [Read full array], not found
WARNING:: ListFind: 
WARNING:: ListFind: 
WARNING:: ListFind:  Requested property: [Read full array], not found
WARNING:: ListFind: 
WARNING:: ListFind: 
WARNING:: ListFind:  Requested property: [Read full array], not found
WARNING:: ListFind: 
WARNING:: ListFind: 
WARNING:: ListFind:  Requested property: [Read full array], not found
WARNING:: ListFind: 
WARNING:: ListFind: 
WARNING:: ListFind:  Requested property: [Read full array], not found
WARNING:: ListFind: 
WARNING:: ListFind: 
WARNING:: ListFind:  Requested property: [Read full array], not found
WARNING:: ListFind: 
WARNING:: ListFind: 
WARNING:: ListFind:  Requested property: [Read full array], not found
WARNING:: ListFind: 
WARNING:: ListFind: 
WARNING:: ListFind:  Requested property: [Read full array], not found
WARNING:: ListFind: 
WARNING:: ListFind: 
WARNING:: ListFind:  Requested property: [Read full array], not found
WARNING:: ListFind: 
WARNING:: ListFind: 
WARNING:: ListFind:  Requested property: [Read full array], not found
WARNING:: ListFind: 
WARNING:: ListFind: 
WARNING:: ListFind:  Requested property: [Read full array], not found
WARNING:: ListFind: 
WARNING:: ListFind: 
WARNING:: ListFind:  Requested property: [Read full array], not found
WARNING:: ListFind: 
WARNING:: ListFind: 
WARNING:: ListFind:  Requested property: [Read full array], not found
WARNING:: ListFind: 
WARNING:: ListFind: 
WARNING:: ListFind:  Requested property: [Read full array], not found
WARNING:: ListFind: 
WARNING:: ListFind: 
WARNING:: ListFind:  Requested property: [Read full array], not found
WARNING:: ListFind: 
WARNING:: ListFind: 
WARNING:: ListFind:  Requested property: [Read full array], not found
WARNING:: ListFind: 
WARNING:: ListFind: 
WARNING:: ListFind:  Requested property: [Read full array], not found
WARNING:: ListFind: 
WARNING:: ListFind: 
WARNING:: ListFind:  Requested property: [Read full array], not found
WARNING:: ListFind: 
WARNING:: ListFind: 
WARNING:: ListFind:  Requested property: [Read full array], not found
WARNING:: ListFind: 
WARNING:: ListFind: 
WARNING:: ListFind:  Requested property: [Read full array], not found
WARNING:: ListFind: 
WARNING:: ListFind: 
WARNING:: ListFind:  Requested property: [Read full array], not found
WARNING:: ListFind: 
WARNING:: ListFind: 
WARNING:: ListFind:  Requested property: [Read full array], not found
WARNING:: ListFind: 
WARNING:: ListFind: 
WARNING:: ListFind:  Requested property: [Read full array], not found
WARNING:: ListFind: 
WARNING:: ListFind: 
WARNING:: ListFind:  Requested property: [Read full array], not found
WARNING:: ListFind: 
WARNING:: ListFind: 
WARNING:: ListFind:  Requested property: [Read full array], not found
WARNING:: ListFind: 
WARNING:: ListFind: 
WARNING:: ListFind:  Requested property: [Read full array], not found
WARNING:: ListFind: 
WARNING:: ListFind: 
WARNING:: ListFind:  Requested property: [Read full array], not found
WARNING:: ListFind: 
WARNING:: ListFind: 
WARNING:: ListFind:  Requested property: [Read full array], not found
WARNING:: ListFind: 
WARNING:: ListFind: 
WARNING:: ListFind:  Requested property: [Read full array], not found
WARNING:: ListFind: 
WARNING:: ListFind: 
WARNING:: ListFind:  Requested property: [Read full array], not found
WARNING:: ListFind: 
WARNING:: ListFind: 
WARNING:: ListFind:  Requested property: [Read full array], not found
WARNING:: ListFind: 
WARNING:: ListFind: 
WARNING:: ListFind:  Requested property: [Read full array], not found
WARNING:: ListFind: 
WARNING:: ListFind: 
WARNING:: ListFind:  Requested property: [Read full array], not found
WARNING:: ListFind: 
WARNING:: ListFind: 
WARNING:: ListFind:  Requested property: [Read full array], not found
WARNING:: ListFind: 
WARNING:: ListFind: 
WARNING:: ListFind:  Requested property: [Read full array], not found
WARNING:: ListFind: 
WARNING:: ListFind: 
WARNING:: ListFind:  Requested property: [Read full array], not found
WARNING:: ListFind: 
WARNING:: ListFind: 
WARNING:: ListFind:  Requested property: [Read full array], not found
WARNING:: ListFind: 
WARNING:: ListFind: 
WARNING:: ListFind:  Requested property: [Read full array], not found
WARNING:: ListFind: 
WARNING:: ListFind: 
WARNING:: ListFind:  Requested property: [Read full array], not found
WARNING:: ListFind: 
WARNING:: ListFind: 
WARNING:: ListFind:  Requested property: [Read full array], not found
WARNING:: ListFind: 
WARNING:: ListFind: 
WARNING:: ListFind:  Requested property: [Read full array], not found
WARNING:: ListFind: 
WARNING:: ListFind: 
WARNING:: ListFind:  Requested property: [Read full array], not found
WARNING:: ListFind: 
WARNING:: ListFind: 
WARNING:: ListFind:  Requested property: [Read full array], not found
WARNING:: ListFind: 
WARNING:: ListFind: 
WARNING:: ListFind:  Requested property: [Read full array], not found
WARNING:: ListFind: 
WARNING:: ListFind: 
WARNING:: ListFind:  Requested property: [Read full array], not found
WARNING:: ListFind: 
WARNING:: ListFind: 
WARNING:: ListFind:  Requested property: [Read full array], not found
WARNING:: ListFind: 
WARNING:: ListFind: 
WARNING:: ListFind:  Requested property: [Read full array], not found
WARNING:: ListFind: 
WARNING:: ListFind: 
WARNING:: ListFind:  Requested property: [Read full array], not found
WARNING:: ListFind: 
WARNING:: ListFind: 
WARNING:: ListFind:  Requested property: [Read full array], not found
WARNING:: ListFind: 
WARNING:: ListFind: 
WARNING:: ListFind:  Requested property: [Read full array], not found
WARNING:: ListFind: 
WARNING:: ListFind: 
WARNING:: ListFind:  Requested property: [Read full array], not found
WARNING:: ListFind: 
WARNING:: ListFind: 
WARNING:: ListFind:  Requested property: [Read full array], not found
WARNING:: ListFind: 
WARNING:: ListFind: 
WARNING:: ListFind:  Requested property: [Read full array], not found
WARNING:: ListFind: 
WARNING:: ListFind: 
WARNING:: ListFind:  Requested property: [Read full array], not found
WARNING:: ListFind: 
WARNING:: ListFind: 
WARNING:: ListFind:  Requested property: [Read full array], not found
WARNING:: ListFind: 
WARNING:: ListFind: 
WARNING:: ListFind:  Requested property: [Read full array], not found
WARNING:: ListFind: 
WARNING:: ListFind: 
WARNING:: ListFind:  Requested property: [Read full array], not found
WARNING:: ListFind: 
WARNING:: ListFind: 
WARNING:: ListFind:  Requested property: [Read full array], not found
WARNING:: ListFind: 
WARNING:: ListFind: 
WARNING:: ListFind:  Requested property: [Read full array], not found
WARNING:: ListFind: 
WARNING:: ListFind: 
WARNING:: ListFind:  Requested property: [Read full array], not found
WARNING:: ListFind: 
WARNING:: ListFind: 
WARNING:: ListFind:  Requested property: [Read full array], not found
WARNING:: ListFind: 
WARNING:: ListFind: 
WARNING:: ListFind:  Requested property: [Read full array], not found
WARNING:: ListFind: 
WARNING:: ListFind: 
WARNING:: ListFind:  Requested property: [Read full array], not found
WARNING:: ListFind: 
WARNING:: ListFind: 
WARNING:: ListFind:  Requested property: [Read full array], not found
WARNING:: ListFind: 
WARNING:: ListFind: 
WARNING:: ListFind:  Requested property: [Read full array], not found
WARNING:: ListFind: 
GridDataReader: Found 1 dimensional coordinate variable > x_coord < : 1
GridDataReader: Found dimension > x_coord < with id 1 and size 201
GridDataReader: Grid parameter of dimension > x_coord < is    3.500E+04
GridDataReader: Range of dimension > x_coord < is [  -3.500E+06   3.500E+06]
GridDataReader: Found 1 dimensional coordinate variable > y_coord < : 1
GridDataReader: Found dimension > y_coord < with id 2 and size 171
GridDataReader: Grid parameter of dimension > y_coord < is   -3.500E+04
GridDataReader: Range of dimension > y_coord < is [   2.975E+06  -2.975E+06]
GridDataReader: No time given, using 1st step
GridDataReader: Performing interpolation for variable: smbref
GridDataReader: Number of proper mappings  : 365
GridDataReader: Elapsed REAL time:     0.0095 (s)
GridDataReader: All done
GridDataReader: -----------------------------------------
Loading user function library: [GridDataReader]...[GridDataReader_post]
MAIN: 
MAIN: -------------------------------------
MAIN: Time: 1/1:   1.000E-01
MAIN: -------------------------------------
MAIN: 
List_ToListMatrix: Matrix format changed from CRS to List
List_ToCRSMatrix: Number of entries in CRS matrix: 2169
List_ToCRSMatrix: Matrix format changed from List to CRS
SingleSolver: Attempting to call solver
SingleSolver: Solver Equation string is: updateexportedvars
UpdateExportedVariables: Found a proper definition in body forces
Loading user function library: [ElmerIceSolvers]...[UpdateExport_post]
List_ToListMatrix: Matrix format changed from CRS to List
List_ToCRSMatrix: Number of entries in CRS matrix: 8676
List_ToCRSMatrix: Matrix format changed from List to CRS
SingleSolver: Attempting to call solver
SingleSolver: Solver Equation string is: nodal gradient
Compute2DNodalGradient: Memory allocation done.
Loading user function library: [ElmerIce_MeshAdapt2D]...[Compute2DNodalGradient_post]
SingleSolver: Attempting to call solver
SingleSolver: Solver Equation string is: read ghf
GridDataReader: -----------------------------------------
GridDataReader: Obtaining field(s) from grid NetCDF format
GridDataReader: Keyword > Z Epsilon < not given, setting equal to > X Epsilon <
GridDataReader: Found 1 dimensional coordinate variable > x < : 1
GridDataReader: Found dimension > x < with id 1 and size 761
GridDataReader: Grid parameter of dimension > x < is    8.000E+03
GridDataReader: Range of dimension > x < is [  -3.040E+06   3.040E+06]
GridDataReader: Found 1 dimensional coordinate variable > y < : 1
GridDataReader: Found dimension > y < with id 2 and size 761
GridDataReader: Grid parameter of dimension > y < is    8.000E+03
GridDataReader: Range of dimension > y < is [  -3.040E+06   3.040E+06]
GridDataReader: No time given, using 1st step
GridDataReader: Performing interpolation for variable: q_geo
GridDataReader: Number of proper mappings  : 365
GridDataReader: Performing interpolation for variable: as_perp_apl
GridDataReader: Number of proper mappings  : 365
GridDataReader: Elapsed REAL time:     0.1348 (s)
GridDataReader: All done
GridDataReader: -----------------------------------------
Loading user function library: [GridDataReader]...[GridDataReader_post]
SingleSolver: Attempting to call solver
SingleSolver: Solver Equation string is: resultoutput
ResultOutputSolver: -------------------------------------
ResultOutputSolver: Saving with prefix: readnc_not
ResultOutputSolver: Working on mesh:
ResultOutputSolver: Dimension of mesh is: 2
ResultOutputSolver: Creating list for saving - if not present
CreateListForSaving: Field Variables for Saving
CreateListForSaving: Scalar Field 1: vobs
CreateListForSaving: Scalar Field 2: vx
CreateListForSaving: Scalar Field 3: vy
CreateListForSaving: Scalar Field 4: surface
CreateListForSaving: Scalar Field 5: bed
CreateListForSaving: Scalar Field 6: thickness
CreateListForSaving: Scalar Field 7: beta
CreateListForSaving: Scalar Field 8: smbref
CreateListForSaving: Scalar Field 9: q_geo
CreateListForSaving: Scalar Field 10: as_perp_apl
CreateListForSaving: Vector Field 1: dvu
ResultOutputSolver: Saving in unstructured VTK XML (.vtu) format
VtuOutputSolver: Saving results in VTK XML format with prefix: readnc_not
VtuOutputSolver: Saving number of partitions: 128
SolverOutputDirectory: Creating directory: ./vtuoutputs
GenerateSaveMask: Number of active elements 665 out of 665
GenerateSaveMask: Number of geometry nodes 365 out of 365
VtuOutputSolver: Total number of geometry nodes to save: 48876
VtuOutputSolver: Total number of dof nodes to save: 48876
VtuOutputSolver: Total number of elements to save: 89056
VtuOutputSolver: Setting offset for boundary entities: 100
VtuOutputSolver: Writing the vtu file: ./vtuoutputs/readnc_not_128np001_t0001.vtu
AscBinWriteInit: Initializing buffered ascii/binary writing
ResultOutputSolver: -------------------------------------
Loading user function library: [ResultOutputSolve]...[ResultOutputSolver_post]
SaveResult: -----------------------------------------
SaveResult: Saving results to file: ./readnc_not.result.0
SaveResult: Done writing results file
SaveResult: -----------------------------------------
ReloadInputFile: Realoading input file
LoadInputFile: Loading input file:
ElmerSolver: *** Elmer Solver: ALL DONE ***
ElmerSolver: The end
SOLVER TOTAL TIME(CPU,REAL):        24.01       41.87
ELMER SOLVER FINISHED AT: 2021/03/18 14:24:27
