ELMER SOLVER (v 8.4) STARTED AT: 2021/04/22 12:23:35es
ELMER SOLVER (v 8.4) STARTED AT: 2021/04/22 12:23:35
ELMER SOLVER (v 8.4) STARTED AT: 2021/04/22 12:23:35
ELMER SOLVER (v 8.4) STARTED AT: 2021/04/22 12:23:35
ELMER SOLVER (v 8.4) STARTED AT: 2021/04/22 12:23:35
ELMER SOLVER (v 8.4) STARTED AT: 2021/04/22 12:23:35
ELMER SOLVER (v 8.4) STARTED AT: 2021/04/22 12:23:35
ELMER SOLVER (v 8.4) STARTED AT: 2021/04/22 12:23:35
ELMER SOLVER (v 8.4) STARTED AT: 2021/04/22 12:23:35
ELMER SOLVER (v 8.4) STARTED AT: 2021/04/22 12:23:35
ELMER SOLVER (v 8.4) STARTED AT: 2021/04/22 12:23:35
ELMER SOLVER (v 8.4) STARTED AT: 2021/04/22 12:23:35
ELMER SOLVER (v 8.4) STARTED AT: 2021/04/22 12:23:35
ELMER SOLVER (v 8.4) STARTED AT: 2021/04/22 12:23:35
ELMER SOLVER (v 8.4) STARTED AT: 2021/04/22 12:23:35
ELMER SOLVER (v 8.4) STARTED AT: 2021/04/22 12:23:35
ELMER SOLVER (v 8.4) STARTED AT: 2021/04/22 12:23:35
ELMER SOLVER (v 8.4) STARTED AT: 2021/04/22 12:23:35
ELMER SOLVER (v 8.4) STARTED AT: 2021/04/22 12:23:35
ELMER SOLVER (v 8.4) STARTED AT: 2021/04/22 12:23:35
ELMER SOLVER (v 8.4) STARTED AT: 2021/04/22 12:23:35
ELMER SOLVER (v 8.4) STARTED AT: 2021/04/22 12:23:35
ELMER SOLVER (v 8.4) STARTED AT: 2021/04/22 12:23:35
ELMER SOLVER (v 8.4) STARTED AT: 2021/04/22 12:23:35
ELMER SOLVER (v 8.4) STARTED AT: 2021/04/22 12:23:35
ELMER SOLVER (v 8.4) STARTED AT: 2021/04/22 12:23:35
ELMER SOLVER (v 8.4) STARTED AT: 2021/04/22 12:23:35
ELMER SOLVER (v 8.4) STARTED AT: 2021/04/22 12:23:35
ELMER SOLVER (v 8.4) STARTED AT: 2021/04/22 12:23:35
ELMER SOLVER (v 8.4) STARTED AT: 2021/04/22 12:23:35
ELMER SOLVER (v 8.4) STARTED AT: 2021/04/22 12:23:35
ELMER SOLVER (v 8.4) STARTED AT: 2021/04/22 12:23:35
ELMER SOLVER (v 8.4) STARTED AT: 2021/04/22 12:23:35
ELMER SOLVER (v 8.4) STARTED AT: 2021/04/22 12:23:35
ELMER SOLVER (v 8.4) STARTED AT: 2021/04/22 12:23:35
ELMER SOLVER (v 8.4) STARTED AT: 2021/04/22 12:23:35
ELMER SOLVER (v 8.4) STARTED AT: 2021/04/22 12:23:35
ELMER SOLVER (v 8.4) STARTED AT: 2021/04/22 12:23:35
ELMER SOLVER (v 8.4) STARTED AT: 2021/04/22 12:23:35
ELMER SOLVER (v 8.4) STARTED AT: 2021/04/22 12:23:35
ELMER SOLVER (v 8.4) STARTED AT: 2021/04/22 12:23:35
ELMER SOLVER (v 8.4) STARTED AT: 2021/04/22 12:23:35
ELMER SOLVER (v 8.4) STARTED AT: 2021/04/22 12:23:35
ELMER SOLVER (v 8.4) STARTED AT: 2021/04/22 12:23:35
ELMER SOLVER (v 8.4) STARTED AT: 2021/04/22 12:23:35
ELMER SOLVER (v 8.4) STARTED AT: 2021/04/22 12:23:35
ELMER SOLVER (v 8.4) STARTED AT: 2021/04/22 12:23:35
ELMER SOLVER (v 8.4) STARTED AT: 2021/04/22 12:23:35
ELMER SOLVER (v 8.4) STARTED AT: 2021/04/22 12:23:35
ELMER SOLVER (v 8.4) STARTED AT: 2021/04/22 12:23:35
ELMER SOLVER (v 8.4) STARTED AT: 2021/04/22 12:23:35
ELMER SOLVER (v 8.4) STARTED AT: 2021/04/22 12:23:35
ELMER SOLVER (v 8.4) STARTED AT: 2021/04/22 12:23:35
ELMER SOLVER (v 8.4) STARTED AT: 2021/04/22 12:23:35
ELMER SOLVER (v 8.4) STARTED AT: 2021/04/22 12:23:35
ELMER SOLVER (v 8.4) STARTED AT: 2021/04/22 12:23:35
ELMER SOLVER (v 8.4) STARTED AT: 2021/04/22 12:23:35
ELMER SOLVER (v 8.4) STARTED AT: 2021/04/22 12:23:35
ELMER SOLVER (v 8.4) STARTED AT: 2021/04/22 12:23:35
ELMER SOLVER (v 8.4) STARTED AT: 2021/04/22 12:23:35
ELMER SOLVER (v 8.4) STARTED AT: 2021/04/22 12:23:35
ELMER SOLVER (v 8.4) STARTED AT: 2021/04/22 12:23:35
ELMER SOLVER (v 8.4) STARTED AT: 2021/04/22 12:23:35
ELMER SOLVER (v 8.4) STARTED AT: 2021/04/22 12:23:35
ELMER SOLVER (v 8.4) STARTED AT: 2021/04/22 12:23:35
ELMER SOLVER (v 8.4) STARTED AT: 2021/04/22 12:23:35
ELMER SOLVER (v 8.4) STARTED AT: 2021/04/22 12:23:35
ELMER SOLVER (v 8.4) STARTED AT: 2021/04/22 12:23:35
ELMER SOLVER (v 8.4) STARTED AT: 2021/04/22 12:23:35
ELMER SOLVER (v 8.4) STARTED AT: 2021/04/22 12:23:35
ELMER SOLVER (v 8.4) STARTED AT: 2021/04/22 12:23:35
ELMER SOLVER (v 8.4) STARTED AT: 2021/04/22 12:23:35
ELMER SOLVER (v 8.4) STARTED AT: 2021/04/22 12:23:35
ELMER SOLVER (v 8.4) STARTED AT: 2021/04/22 12:23:35
ELMER SOLVER (v 8.4) STARTED AT: 2021/04/22 12:23:35
ELMER SOLVER (v 8.4) STARTED AT: 2021/04/22 12:23:35
ELMER SOLVER (v 8.4) STARTED AT: 2021/04/22 12:23:35
ELMER SOLVER (v 8.4) STARTED AT: 2021/04/22 12:23:35
ELMER SOLVER (v 8.4) STARTED AT: 2021/04/22 12:23:35
ELMER SOLVER (v 8.4) STARTED AT: 2021/04/22 12:23:35
ELMER SOLVER (v 8.4) STARTED AT: 2021/04/22 12:23:35
ELMER SOLVER (v 8.4) STARTED AT: 2021/04/22 12:23:35
ELMER SOLVER (v 8.4) STARTED AT: 2021/04/22 12:23:35
ELMER SOLVER (v 8.4) STARTED AT: 2021/04/22 12:23:35
ELMER SOLVER (v 8.4) STARTED AT: 2021/04/22 12:23:35
ELMER SOLVER (v 8.4) STARTED AT: 2021/04/22 12:23:35
ELMER SOLVER (v 8.4) STARTED AT: 2021/04/22 12:23:35
ELMER SOLVER (v 8.4) STARTED AT: 2021/04/22 12:23:35
ELMER SOLVER (v 8.4) STARTED AT: 2021/04/22 12:23:35
ELMER SOLVER (v 8.4) STARTED AT: 2021/04/22 12:23:35
ELMER SOLVER (v 8.4) STARTED AT: 2021/04/22 12:23:35
ELMER SOLVER (v 8.4) STARTED AT: 2021/04/22 12:23:35
ELMER SOLVER (v 8.4) STARTED AT: 2021/04/22 12:23:35
ELMER SOLVER (v 8.4) STARTED AT: 2021/04/22 12:23:35
ELMER SOLVER (v 8.4) STARTED AT: 2021/04/22 12:23:35
ELMER SOLVER (v 8.4) STARTED AT: 2021/04/22 12:23:35
ELMER SOLVER (v 8.4) STARTED AT: 2021/04/22 12:23:35
ELMER SOLVER (v 8.4) STARTED AT: 2021/04/22 12:23:35
ELMER SOLVER (v 8.4) STARTED AT: 2021/04/22 12:23:35
ELMER SOLVER (v 8.4) STARTED AT: 2021/04/22 12:23:35
ELMER SOLVER (v 8.4) STARTED AT: 2021/04/22 12:23:35
ELMER SOLVER (v 8.4) STARTED AT: 2021/04/22 12:23:35
ELMER SOLVER (v 8.4) STARTED AT: 2021/04/22 12:23:35
ELMER SOLVER (v 8.4) STARTED AT: 2021/04/22 12:23:35
ELMER SOLVER (v 8.4) STARTED AT: 2021/04/22 12:23:35
ELMER SOLVER (v 8.4) STARTED AT: 2021/04/22 12:23:35
ELMER SOLVER (v 8.4) STARTED AT: 2021/04/22 12:23:35
ELMER SOLVER (v 8.4) STARTED AT: 2021/04/22 12:23:35
ELMER SOLVER (v 8.4) STARTED AT: 2021/04/22 12:23:35
ELMER SOLVER (v 8.4) STARTED AT: 2021/04/22 12:23:35
ELMER SOLVER (v 8.4) STARTED AT: 2021/04/22 12:23:35
ELMER SOLVER (v 8.4) STARTED AT: 2021/04/22 12:23:35
ELMER SOLVER (v 8.4) STARTED AT: 2021/04/22 12:23:35
ELMER SOLVER (v 8.4) STARTED AT: 2021/04/22 12:23:35
ELMER SOLVER (v 8.4) STARTED AT: 2021/04/22 12:23:35
ELMER SOLVER (v 8.4) STARTED AT: 2021/04/22 12:23:35
ELMER SOLVER (v 8.4) STARTED AT: 2021/04/22 12:23:35
ELMER SOLVER (v 8.4) STARTED AT: 2021/04/22 12:23:35
ELMER SOLVER (v 8.4) STARTED AT: 2021/04/22 12:23:35
ELMER SOLVER (v 8.4) STARTED AT: 2021/04/22 12:23:35
ELMER SOLVER (v 8.4) STARTED AT: 2021/04/22 12:23:35
ELMER SOLVER (v 8.4) STARTED AT: 2021/04/22 12:23:35
ELMER SOLVER (v 8.4) STARTED AT: 2021/04/22 12:23:35
ELMER SOLVER (v 8.4) STARTED AT: 2021/04/22 12:23:35
ELMER SOLVER (v 8.4) STARTED AT: 2021/04/22 12:23:35
ELMER SOLVER (v 8.4) STARTED AT: 2021/04/22 12:23:35
ELMER SOLVER (v 8.4) STARTED AT: 2021/04/22 12:23:35
ELMER SOLVER (v 8.4) STARTED AT: 2021/04/22 12:23:35
ParCommInit:  Initialize #PEs:          128
ParCommInit:  Initialize #PEs:          128
ParCommInit:  Initialize #PEs:          128
ParCommInit:  Initialize #PEs:          128
ParCommInit:  Initialize #PEs:          128
ParCommInit:  Initialize #PEs:          128
ParCommInit:  Initialize #PEs:          128
ParCommInit:  Initialize #PEs:          128
ParCommInit:  Initialize #PEs:          128
ParCommInit:  Initialize #PEs:          128
ParCommInit:  Initialize #PEs:          128
ParCommInit:  Initialize #PEs:          128
ParCommInit:  Initialize #PEs:          128
ParCommInit:  Initialize #PEs:          128
ParCommInit:  Initialize #PEs:          128
ParCommInit:  Initialize #PEs:          128
ParCommInit:  Initialize #PEs:          128
ParCommInit:  Initialize #PEs:          128
ParCommInit:  Initialize #PEs:          128
ParCommInit:  Initialize #PEs:          128
ParCommInit:  Initialize #PEs:          128
ParCommInit:  Initialize #PEs:          128
ParCommInit:  Initialize #PEs:          128
ParCommInit:  Initialize #PEs:          128
ParCommInit:  Initialize #PEs:          128
ParCommInit:  Initialize #PEs:          128
ParCommInit:  Initialize #PEs:          128
ParCommInit:  Initialize #PEs:          128
ParCommInit:  Initialize #PEs:          128
ParCommInit:  Initialize #PEs:          128
ParCommInit:  Initialize #PEs:          128
ParCommInit:  Initialize #PEs:          128
ParCommInit:  Initialize #PEs:          128
ParCommInit:  Initialize #PEs:          128
ParCommInit:  Initialize #PEs:          128
ParCommInit:  Initialize #PEs:          128
ParCommInit:  Initialize #PEs:          128
ParCommInit:  Initialize #PEs:          128
ParCommInit:  Initialize #PEs:          128
ParCommInit:  Initialize #PEs:          128
ParCommInit:  Initialize #PEs:          128
ParCommInit:  Initialize #PEs:          128
ParCommInit:  Initialize #PEs:          128
ParCommInit:  Initialize #PEs:          128
ParCommInit:  Initialize #PEs:          128
ParCommInit:  Initialize #PEs:          128
ParCommInit:  Initialize #PEs:          128
ParCommInit:  Initialize #PEs:          128
ParCommInit:  Initialize #PEs:          128
ParCommInit:  Initialize #PEs:          128
ParCommInit:  Initialize #PEs:          128
ParCommInit:  Initialize #PEs:          128
ParCommInit:  Initialize #PEs:          128
ParCommInit:  Initialize #PEs:          128
ParCommInit:  Initialize #PEs:          128
ParCommInit:  Initialize #PEs:          128
ParCommInit:  Initialize #PEs:          128
ParCommInit:  Initialize #PEs:          128
ParCommInit:  Initialize #PEs:          128
ParCommInit:  Initialize #PEs:          128
ParCommInit:  Initialize #PEs:          128
ParCommInit:  Initialize #PEs:          128
ParCommInit:  Initialize #PEs:          128
ParCommInit:  Initialize #PEs:          128
ParCommInit:  Initialize #PEs:          128
ParCommInit:  Initialize #PEs:          128
ParCommInit:  Initialize #PEs:          128
ParCommInit:  Initialize #PEs:          128
ParCommInit:  Initialize #PEs:          128
ParCommInit:  Initialize #PEs:          128
ParCommInit:  Initialize #PEs:          128
ParCommInit:  Initialize #PEs:          128
ParCommInit:  Initialize #PEs:          128
ParCommInit:  Initialize #PEs:          128
ParCommInit:  Initialize #PEs:          128
ParCommInit:  Initialize #PEs:          128
ParCommInit:  Initialize #PEs:          128
ParCommInit:  Initialize #PEs:          128
ParCommInit:  Initialize #PEs:          128
ParCommInit:  Initialize #PEs:          128
ParCommInit:  Initialize #PEs:          128
ParCommInit:  Initialize #PEs:          128
ParCommInit:  Initialize #PEs:          128
ParCommInit:  Initialize #PEs:          128
ParCommInit:  Initialize #PEs:          128
ParCommInit:  Initialize #PEs:          128
ParCommInit:  Initialize #PEs:          128
ParCommInit:  Initialize #PEs:          128
ParCommInit:  Initialize #PEs:          128
ParCommInit:  Initialize #PEs:          128
ParCommInit:  Initialize #PEs:          128
ParCommInit:  Initialize #PEs:          128
ParCommInit:  Initialize #PEs:          128
ParCommInit:  Initialize #PEs:          128
ParCommInit:  Initialize #PEs:          128
ParCommInit:  Initialize #PEs:          128
ParCommInit:  Initialize #PEs:          128
ParCommInit:  Initialize #PEs:          128
ParCommInit:  Initialize #PEs:          128
ParCommInit:  Initialize #PEs:          128
ParCommInit:  Initialize #PEs:          128
ParCommInit:  Initialize #PEs:          128
ParCommInit:  Initialize #PEs:          128
ParCommInit:  Initialize #PEs:          128
ParCommInit:  Initialize #PEs:          128
ParCommInit:  Initialize #PEs:          128
ParCommInit:  Initialize #PEs:          128
ParCommInit:  Initialize #PEs:          128
ParCommInit:  Initialize #PEs:          128
ParCommInit:  Initialize #PEs:          128
ParCommInit:  Initialize #PEs:          128
ParCommInit:  Initialize #PEs:          128
ParCommInit:  Initialize #PEs:          128
ParCommInit:  Initialize #PEs:          128
ParCommInit:  Initialize #PEs:          128
ParCommInit:  Initialize #PEs:          128
ParCommInit:  Initialize #PEs:          128
ParCommInit:  Initialize #PEs:          128
ParCommInit:  Initialize #PEs:          128
ParCommInit:  Initialize #PEs:          128
ParCommInit:  Initialize #PEs:          128
ParCommInit:  Initialize #PEs:          128
ParCommInit:  Initialize #PEs:          128
ParCommInit:  Initialize #PEs:          128
ParCommInit:  Initialize #PEs:          128
ParCommInit:  Initialize #PEs:          128
ParCommInit:  Initialize #PEs:          128
ParCommInit:  Initialize #PEs:          128
MAIN: 
MAIN: =============================================================
MAIN: ElmerSolver finite element software, Welcome!
MAIN: This program is free software licensed under (L)GPL
MAIN: Copyright 1st April 1995 - , CSC - IT Center for Science Ltd.
MAIN: Webpage http://www.csc.fi/elmer, Email elmeradm@csc.fi
MAIN: Version: 8.4 (Rev: 3c3a578, Compiled: 2020-12-30)
MAIN:  Running in parallel using 128 tasks.
MAIN:  Running with just one thread per task.
MAIN:  HYPRE library linked in.
MAIN:  MUMPS library linked in.
MAIN:  Lua interpreted linked in.
MAIN: =============================================================
LoadInputFile: Reading only "Run Control" section
MAIN: 
MAIN: 
MAIN: -------------------------------------
MAIN: Reading Model: TG_OptViscDrag_S3.sif
LoadInputFile: Scanning input file: TG_OptViscDrag_S3.sif
LoadInputFile: Scanning only size info
LoadInputFile: First time visiting
LoadInputFile: Reading base load of sif file
LoadInputFile: Loading input file: TG_OptViscDrag_S3.sif
LoadInputFile: Reading base load of sif file
Model Input:  Unlisted keyword: [water density] in section: [constants]
Model Input:  Unlisted keyword: [temperaturerel] in section: [initial condition 1]
Model Input:  Unlisted keyword: [mu] in section: [initial condition 1]
Model Input:  Unlisted keyword: [ef] in section: [initial condition 1]
Model Input:  Unlisted keyword: [bottom ef] in section: [initial condition 1]
Model Input:  Unlisted keyword: [beta] in section: [initial condition 1]
Model Input:  Unlisted keyword: [costv passive] in section: [body force 1]
Loading user function library: [USFs]...[PassiveCond_H]
Model Input:  Unlisted keyword: [passive element min nodes] in section: [body force 1]
Model Input:  Unlisted keyword: [sea level] in section: [material 1]
Model Input:  Unlisted keyword: [top surface variable name] in section: [solver 1]
Model Input:  Unlisted keyword: [bottom surface variable name] in section: [solver 1]
Model Input:  Unlisted keyword: [correct surface] in section: [solver 1]
Model Input:  Unlisted keyword: [minimum height] in section: [solver 1]
Model Input:  Unlisted keyword: [cost variable name] in section: [solver 4]
Model Input:  Unlisted keyword: [cost filename] in section: [solver 4]
Model Input:  Unlisted keyword: [lambda] in section: [solver 4]
Model Input:  Unlisted keyword: [observed variable dimension] in section: [solver 4]
Model Input:  Unlisted keyword: [observed variable name] in section: [solver 4]
Model Input:  Unlisted keyword: [observation file name] in section: [solver 4]
Model Input:  Unlisted keyword: [x var name] in section: [solver 4]
Model Input:  Unlisted keyword: [y var name] in section: [solver 4]
Model Input:  Unlisted keyword: [save used data] in section: [solver 4]
Model Input:  Unlisted keyword: [direct solver equation name] in section: [solver 5]
Model Input:  Unlisted keyword: [adjoint solution name] in section: [solver 6]
Model Input:  Unlisted keyword: [optimized variable name] in section: [solver 6]
Model Input:  Unlisted keyword: [gradient variable name] in section: [solver 6]
Model Input:  Unlisted keyword: [project to bottom] in section: [solver 7]
Model Input:  Unlisted keyword: [problem dimension] in section: [solver 8]
Model Input:  Unlisted keyword: [cost filename] in section: [solver 8]
Model Input:  Unlisted keyword: [optimized variable name] in section: [solver 8]
Model Input:  Unlisted keyword: [gradient variable name] in section: [solver 8]
Model Input:  Unlisted keyword: [cost variable name] in section: [solver 8]
Model Input:  Unlisted keyword: [lambda] in section: [solver 8]
Model Input:  Unlisted keyword: [reset cost value] in section: [solver 8]
Model Input:  Unlisted keyword: [a priori regularisation] in section: [solver 8]
Model Input:  Unlisted keyword: [adjoint solution name] in section: [solver 9]
Model Input:  Unlisted keyword: [gradient variable name] in section: [solver 9]
Model Input:  Unlisted keyword: [cost filename] in section: [solver 10]
Model Input:  Unlisted keyword: [optimized variable name] in section: [solver 10]
Model Input:  Unlisted keyword: [gradient variable name] in section: [solver 10]
Model Input:  Unlisted keyword: [cost variable name] in section: [solver 10]
Model Input:  Unlisted keyword: [lambda] in section: [solver 10]
Model Input:  Unlisted keyword: [reset cost value] in section: [solver 10]
Model Input:  Unlisted keyword: [a priori regularisation] in section: [solver 10]
Model Input:  Unlisted keyword: [cost variable name] in section: [solver 11]
Model Input:  Unlisted keyword: [optimized variable name] in section: [solver 11]
Model Input:  Unlisted keyword: [gradient variable name] in section: [solver 11]
Model Input:  Unlisted keyword: [gradient norm file] in section: [solver 11]
Model Input:  Unlisted keyword: [mesh independent] in section: [solver 11]
Model Input:  Unlisted keyword: [m1qn3 dxmin] in section: [solver 11]
Model Input:  Unlisted keyword: [m1qn3 epsg] in section: [solver 11]
Model Input:  Unlisted keyword: [m1qn3 niter] in section: [solver 11]
Model Input:  Unlisted keyword: [m1qn3 nsim] in section: [solver 11]
Model Input:  Unlisted keyword: [m1qn3 impres] in section: [solver 11]
Model Input:  Unlisted keyword: [m1qn3 dis mode] in section: [solver 11]
Model Input:  Unlisted keyword: [m1qn3 df1] in section: [solver 11]
Model Input:  Unlisted keyword: [m1qn3 normtype] in section: [solver 11]
Model Input:  Unlisted keyword: [m1qn3 outputfile] in section: [solver 11]
Model Input:  Unlisted keyword: [m1qn3 ndz] in section: [solver 11]
Loading user function library: [ElmerIceUSF]...[SeaPressure]
Model Input:  Unlisted keyword: [compute sea pressure] in section: [boundary condition 1]
Loading user function library: [ElmerIceUSF]...[TenPowerA_masked]
Loading user function library: [ElmerIceUSF]...[TenPowerA_masked]
Model Input:  Unlisted keyword: [slip coefficient derivative] in section: [boundary condition 3]
Loading user function library: [ElmerIceUSF]...[TenPowerA_d_Masked]
LoadInputFile: Number of BCs: 4
LoadInputFile: Number of Body Forces: 1
LoadInputFile: Number of Initial Conditions: 1
LoadInputFile: Number of Materials: 1
LoadInputFile: Number of Equations: 3
LoadInputFile: Number of Solvers: 13
LoadInputFile: Number of Bodies: 3
Loading user function library: [StructuredMeshMapper]...[StructuredMeshMapper_Init0]
Loading user function library: [StructuredProjectToPlane]...[StructuredProjectToPlane_Init0]
Loading user function library: [ElmerIceSolvers]...[Adjoint_CostDiscSolver_Init0]
Loading user function library: [ElmerIceSolvers]...[Adjoint_LinearSolver_Init0]
Loading user function library: [ElmerIceSolvers]...[AdjointStokes_GradientMuSolver_Init0]
Loading user function library: [StructuredProjectToPlane_local]...[StructuredProjectToPlane_Init0]
Loading user function library: [ElmerIceSolvers]...[Adjoint_CostRegSolver_Init0]
Loading user function library: [ElmerIceSolvers]...[AdjointStokes_GradientBetaSolver_Init0]
Loading user function library: [ElmerIceSolvers]...[Adjoint_CostRegSolver_Init0]
Loading user function library: [ElmerIceSolvers]...[Optimize_m1qn3Parallel_Init0]
Loading user function library: [SaveData]...[SaveMaterials_Init0]
Loading user function library: [ResultOutputSolve]...[ResultOutputSolver_Init0]
LoadMesh: Starting
ElmerAsciiMesh: Performing step: 1
LoadMesh: Base mesh name: ./../mesh2D_TG_refpart/
InitializeMesh: Number of nodes in mesh: 365
InitializeMesh: Number of bulk elements in mesh: 649
InitializeMesh: Number of boundary elements in mesh: 16
ElmerAsciiMesh: Performing step: 2
SetMeshDimension: Dimension of mesh is: 2
SetMeshDimension: Max dimension of mesh is: 2
ElmerAsciiMesh: Performing step: 3
ElmerAsciiMesh: Performing step: 4
LoadMesh: Performing node mapping
LoadMesh: Remapping boundaries
LoadMesh: Minimum initial boundary index: 2
LoadMesh: Maximum initial boundary index: 2
ElmerAsciiMesh: Performing step: 5
ElmerAsciiMesh: Performing step: 6
LoadMesh: Loading mesh done
LoadMesh: Elapsed REAL time:     0.0800 (s)
MeshStabParams: Computing stabilization parameters
MeshStabParams: Elapsed REAL time:     0.0003 (s)
UnitSegmentDivision: Creating functional division
UnitSegmentDivision: Convergence obtained in 135 iterations
UnitSegmentDivision: Mesh division ready
UnitSegmentDivision: w(0) :   0.0000E+00
UnitSegmentDivision: w(1) :   3.7444E-02
UnitSegmentDivision: w(2) :   7.8392E-02
UnitSegmentDivision: w(3) :   1.2317E-01
UnitSegmentDivision: w(4) :   1.7215E-01
UnitSegmentDivision: w(5) :   2.2571E-01
UnitSegmentDivision: w(6) :   2.8428E-01
UnitSegmentDivision: w(7) :   3.4833E-01
UnitSegmentDivision: w(8) :   4.1838E-01
UnitSegmentDivision: w(9) :   4.9499E-01
UnitSegmentDivision: w(10) :   5.7877E-01
UnitSegmentDivision: w(11) :   6.7039E-01
UnitSegmentDivision: w(12) :   7.7059E-01
UnitSegmentDivision: w(13) :   8.8017E-01
UnitSegmentDivision: w(14) :   1.0000E+00
MeshExtrude: First Extruded BC set to: 3
MeshExtrude: Number of new BCs for layers: 1
SetMeshDimension: Dimension of mesh is: 3
SetMeshDimension: Max dimension of mesh is: 3
NonNodalElements: Requested elements require creation of edges
FindMeshEdges: Determining faces in 3D mesh
FindMeshEdges: Determining edges in 3D mesh
MAIN: -------------------------------------
AddEquationBasics: Setting up solver: mapcoordinate
Loading user function library: [StructuredMeshMapper]...[StructuredMeshMapper_Init]
Loading user function library: [StructuredMeshMapper]...[StructuredMeshMapper_bulk]
Loading user function library: [StructuredMeshMapper]...[StructuredMeshMapper]
AddEquationBasics: Setting up solver: projectef
Loading user function library: [StructuredProjectToPlane]...[StructuredProjectToPlane_Init]
Loading user function library: [StructuredProjectToPlane]...[StructuredProjectToPlane_bulk]
Loading user function library: [StructuredProjectToPlane]...[StructuredProjectToPlane]
AddEquationBasics: Setting up solver: navier-stokes
Loading user function library: [FlowSolve]...[FlowSolver_Init]
Loading user function library: [FlowSolve]...[FlowSolver_bulk]
Loading user function library: [FlowSolve]...[FlowSolver]
AddEquationBasics: Creating standard variable: flow solution[velocity:3 pressure:1]
OptimizeBandwidth: ---------------------------------------------------------
OptimizeBandwidth: Computing matrix structure for: navier-stokes...done.
OptimizeBandwidth: Half bandwidth without optimization: 719
OptimizeBandwidth: 
OptimizeBandwidth: Bandwidth Optimization ...done.
OptimizeBandwidth: Half bandwidth after optimization: 667
OptimizeBandwidth: ---------------------------------------------------------
AddEquationBasics: Setting up solver: cost
Loading user function library: [ElmerIceSolvers]...[Adjoint_CostDiscSolver_Init]
Loading user function library: [ElmerIceSolvers]...[Adjoint_CostDiscSolver_bulk]
Loading user function library: [ElmerIceSolvers]...[Adjoint_CostDiscSolver]
AddEquationBasics: Creating standard variable: costv
OptimizeBandwidth: ---------------------------------------------------------
OptimizeBandwidth: Computing matrix structure for: cost...done.
OptimizeBandwidth: Half bandwidth without optimization: 352
OptimizeBandwidth: ---------------------------------------------------------
AddEquationBasics: Setting up solver: adjoint
Loading user function library: [ElmerIceSolvers]...[Adjoint_LinearSolver_Init]
Loading user function library: [ElmerIceSolvers]...[Adjoint_LinearSolver_bulk]
Loading user function library: [ElmerIceSolvers]...[Adjoint_LinearSolver]
AddEquationBasics: Creating standard variable: adjoint
OptimizeBandwidth: ---------------------------------------------------------
OptimizeBandwidth: Computing matrix structure for: adjoint...done.
OptimizeBandwidth: Half bandwidth without optimization: 719
OptimizeBandwidth: 
OptimizeBandwidth: Bandwidth Optimization ...done.
OptimizeBandwidth: Half bandwidth after optimization: 667
OptimizeBandwidth: ---------------------------------------------------------
AddEquationBasics: Setting up solver: djdef
Loading user function library: [ElmerIceSolvers]...[AdjointStokes_GradientMuSolver_Init]
Loading user function library: [ElmerIceSolvers]...[AdjointStokes_GradientMuSolver_bulk]
Loading user function library: [ElmerIceSolvers]...[AdjointStokes_GradientMuSolver]
AddEquationBasics: Creating standard variable: djdef
OptimizeBandwidth: ---------------------------------------------------------
OptimizeBandwidth: Computing matrix structure for: djdef...done.
OptimizeBandwidth: Half bandwidth without optimization: 719
OptimizeBandwidth: 
OptimizeBandwidth: Bandwidth Optimization ...done.
OptimizeBandwidth: Half bandwidth after optimization: 667
OptimizeBandwidth: ---------------------------------------------------------
AddEquationBasics: Setting up solver: sumdjdef
Loading user function library: [StructuredProjectToPlane_local]...[StructuredProjectToPlane_Init]
Loading user function library: [StructuredProjectToPlane_local]...[StructuredProjectToPlane_bulk]
Loading user function library: [StructuredProjectToPlane_local]...[StructuredProjectToPlane]
AddEquationBasics: Setting up solver: djdef_reg
Loading user function library: [ElmerIceSolvers]...[Adjoint_CostRegSolver_Init]
Loading user function library: [ElmerIceSolvers]...[Adjoint_CostRegSolver_bulk]
Loading user function library: [ElmerIceSolvers]...[Adjoint_CostRegSolver]
AddEquationBasics: Creating standard variable: djdef_reg_var
OptimizeBandwidth: ---------------------------------------------------------
OptimizeBandwidth: Computing matrix structure for: djdef_reg...done.
OptimizeBandwidth: Half bandwidth without optimization: 352
OptimizeBandwidth: ---------------------------------------------------------
AddEquationBasics: Setting up solver: djdbeta
Loading user function library: [ElmerIceSolvers]...[AdjointStokes_GradientBetaSolver_Init]
Loading user function library: [ElmerIceSolvers]...[AdjointStokes_GradientBetaSolver_bulk]
Loading user function library: [ElmerIceSolvers]...[AdjointStokes_GradientBetaSolver]
AddEquationBasics: Creating standard variable: djdbeta_var
OptimizeBandwidth: ---------------------------------------------------------
OptimizeBandwidth: Computing matrix structure for: djdbeta...done.
OptimizeBandwidth: Half bandwidth without optimization: 352
OptimizeBandwidth: ---------------------------------------------------------
AddEquationBasics: Setting up solver: djdbeta_reg
Loading user function library: [ElmerIceSolvers]...[Adjoint_CostRegSolver_Init]
Loading user function library: [ElmerIceSolvers]...[Adjoint_CostRegSolver_bulk]
Loading user function library: [ElmerIceSolvers]...[Adjoint_CostRegSolver]
AddEquationBasics: Creating standard variable: djdbeta_reg_var
OptimizeBandwidth: ---------------------------------------------------------
OptimizeBandwidth: Computing matrix structure for: djdbeta_reg...done.
OptimizeBandwidth: Half bandwidth without optimization: 352
OptimizeBandwidth: ---------------------------------------------------------
AddEquationBasics: Setting up solver: optimize_m1qn3
Loading user function library: [ElmerIceSolvers]...[Optimize_m1qn3Parallel_Init]
Loading user function library: [ElmerIceSolvers]...[Optimize_m1qn3Parallel_bulk]
Loading user function library: [ElmerIceSolvers]...[Optimize_m1qn3Parallel]
AddEquationBasics: Creating global variable: optimize_m1qn3_var
Loading user function library: [SaveData]...[SaveMaterials_Init]
Loading user function library: [SaveData]...[SaveMaterials]
AddEquationBasics: Setting up solver: resultoutput
Loading user function library: [ResultOutputSolve]...[ResultOutputSolver_Init]
Loading user function library: [ResultOutputSolve]...[ResultOutputSolver_bulk]
Loading user function library: [ResultOutputSolve]...[ResultOutputSolver]
Restart: Perfoming global Restart for:
LoadRestartFile: 
LoadRestartFile: --------------------------------------------
LoadRestartFile: Restart for mesh name:
LoadRestartFile: Restart for number of nodes: 5475
LoadRestartFile: Reading data from file: ../TG_S2/results/TG_dV_GEF.result.0
LoadRestartFile: ASCII 3
LoadRestartFile: Reading ascii restart file version 3
LoadRestartFile: Creating variable: proj_thickness
LoadRestartFile: Creating variable: groundedmask
LoadRestartFile: Creating variable: temperature
LoadRestartFile: Creating variable: fs lower
LoadRestartFile: Creating variable: fs upper
LoadRestartFile: Total number of dofs to load: 55
LoadRestartFile: Reading time sequence:    2.001E-01
LoadRestartFile: Reading timestep: 1
LoadRestartFile: Reading time sequence:    2.003E-01
LoadRestartFile: Reading timestep: 2
WARNING:: LoadRestartFile: Could not find restart variable: 7
WARNING:: LoadRestartFile: Could not find restart variable: 7
WARNING:: LoadRestartFile: Could not find restart variable: 7
WARNING:: LoadRestartFile: Could not find restart variable: 7
WARNING:: LoadRestartFile: Could not find restart variable: 7
WARNING:: LoadRestartFile: Could not find restart variable: 7
WARNING:: LoadRestartFile: Could not find restart variable: 7
WARNING:: LoadRestartFile: Could not find restart variable: 7
WARNING:: LoadRestartFile: Could not find restart variable: 7
WARNING:: LoadRestartFile: Could not find restart variable: 7
WARNING:: LoadRestartFile: Could not find restart variable: 7
WARNING:: LoadRestartFile: Could not find restart variable: 7
WARNING:: LoadRestartFile: Could not find restart variable: 7
WARNING:: LoadRestartFile: Could not find restart variable: 7
WARNING:: LoadRestartFile: Could not find restart variable: 7
WARNING:: LoadRestartFile: Could not find restart variable: 7
WARNING:: LoadRestartFile: Could not find restart variable: 7
WARNING:: LoadRestartFile: Could not find restart variable: 7
WARNING:: LoadRestartFile: Could not find restart variable: 7
WARNING:: LoadRestartFile: Could not find restart variable: 7
WARNING:: LoadRestartFile: Could not find restart variable: 7
WARNING:: LoadRestartFile: Could not find restart variable: 7
WARNING:: LoadRestartFile: Could not find restart variable: 7
WARNING:: LoadRestartFile: Could not find restart variable: 7
WARNING:: LoadRestartFile: Could not find restart variable: 7
WARNING:: LoadRestartFile: Could not find restart variable: 7
WARNING:: LoadRestartFile: Could not find restart variable: 7
WARNING:: LoadRestartFile: Could not find restart variable: 7
WARNING:: LoadRestartFile: Could not find restart variable: 7
WARNING:: LoadRestartFile: Could not find restart variable: 7
WARNING:: LoadRestartFile: Could not find restart variable: 7
WARNING:: LoadRestartFile: Could not find restart variable: 7
WARNING:: LoadRestartFile: Could not find restart variable: 7
WARNING:: LoadRestartFile: Could not find restart variable: 7
WARNING:: LoadRestartFile: Could not find restart variable: 7
WARNING:: LoadRestartFile: Could not find restart variable: 7
WARNING:: LoadRestartFile: Could not find restart variable: 7
WARNING:: LoadRestartFile: Could not find restart variable: 7
WARNING:: LoadRestartFile: Could not find restart variable: 7
WARNING:: LoadRestartFile: Could not find restart variable: 7
WARNING:: LoadRestartFile: Could not find restart variable: 7
WARNING:: LoadRestartFile: Could not find restart variable: 7
WARNING:: LoadRestartFile: Could not find restart variable: 7
WARNING:: LoadRestartFile: Could not find restart variable: 7
WARNING:: LoadRestartFile: Could not find restart variable: 7
WARNING:: LoadRestartFile: Could not find restart variable: 7
WARNING:: LoadRestartFile: Could not find restart variable: 7
WARNING:: LoadRestartFile: Could not find restart variable: 7
WARNING:: LoadRestartFile: Could not find restart variable: 7
WARNING:: LoadRestartFile: Could not find restart variable: 7
WARNING:: LoadRestartFile: Could not find restart variable: 7
WARNING:: LoadRestartFile: Could not find restart variable: 7
WARNING:: LoadRestartFile: Could not find restart variable: 7
WARNING:: LoadRestartFile: Could not find restart variable: 7
WARNING:: LoadRestartFile: Could not find restart variable: 7
WARNING:: LoadRestartFile: Could not find restart variable: 7
WARNING:: LoadRestartFile: Could not find restart variable: 7
WARNING:: LoadRestartFile: Could not find restart variable: 7
WARNING:: LoadRestartFile: Could not find restart variable: 7
WARNING:: LoadRestartFile: Could not find restart variable: 7
WARNING:: LoadRestartFile: Could not find restart variable: 7
WARNING:: LoadRestartFile: Could not find restart variable: 7
WARNING:: LoadRestartFile: Could not find restart variable: 7
WARNING:: LoadRestartFile: Could not find restart variable: 7
WARNING:: LoadRestartFile: Could not find restart variable: 7
WARNING:: LoadRestartFile: Could not find restart variable: 7
WARNING:: LoadRestartFile: Could not find restart variable: 7
WARNING:: LoadRestartFile: Could not find restart variable: 7
WARNING:: LoadRestartFile: Could not find restart variable: 7
WARNING:: LoadRestartFile: Could not find restart variable: 7
WARNING:: LoadRestartFile: Could not find restart variable: 7
WARNING:: LoadRestartFile: Could not find restart variable: 7
WARNING:: LoadRestartFile: Could not find restart variable: 7
WARNING:: LoadRestartFile: Could not find restart variable: 7
WARNING:: LoadRestartFile: Could not find restart variable: 7
WARNING:: LoadRestartFile: Could not find restart variable: 7
WARNING:: LoadRestartFile: Could not find restart variable: 7
WARNING:: LoadRestartFile: Could not find restart variable: 7
WARNING:: LoadRestartFile: Could not find restart variable: 7
WARNING:: LoadRestartFile: Could not find restart variable: 7
WARNING:: LoadRestartFile: Could not find restart variable: 7
WARNING:: LoadRestartFile: Could not find restart variable: 7
WARNING:: LoadRestartFile: Could not find restart variable: 7
WARNING:: LoadRestartFile: Could not find restart variable: 7
WARNING:: LoadRestartFile: Could not find restart variable: 7
WARNING:: LoadRestartFile: Could not find restart variable: 7
WARNING:: LoadRestartFile: Could not find restart variable: 7
WARNING:: LoadRestartFile: Could not find restart variable: 7
WARNING:: LoadRestartFile: Could not find restart variable: 7
WARNING:: LoadRestartFile: Could not find restart variable: 7
WARNING:: LoadRestartFile: Could not find restart variable: 7
WARNING:: LoadRestartFile: Could not find restart variable: 7
WARNING:: LoadRestartFile: Could not find restart variable: 7
WARNING:: LoadRestartFile: Could not find restart variable: 7
WARNING:: LoadRestartFile: Could not find restart variable: 7
WARNING:: LoadRestartFile: Could not find restart variable: 7
WARNING:: LoadRestartFile: Could not find restart variable: 7
WARNING:: LoadRestartFile: Could not find restart variable: 7
WARNING:: LoadRestartFile: Could not find restart variable: 7
WARNING:: LoadRestartFile: Could not find restart variable: 7
WARNING:: LoadRestartFile: Could not find restart variable: 7
WARNING:: LoadRestartFile: Could not find restart variable: 7
WARNING:: LoadRestartFile: Could not find restart variable: 7
WARNING:: LoadRestartFile: Could not find restart variable: 7
WARNING:: LoadRestartFile: Could not find restart variable: 7
WARNING:: LoadRestartFile: Could not find restart variable: 7
WARNING:: LoadRestartFile: Could not find restart variable: 7
WARNING:: LoadRestartFile: Could not find restart variable: 7
LoadRestartFile: Time spent for restart (s):      4.4197E-01
LoadRestartFile: All done
LoadRestartFile: --------------------------------------------
WARNING:: LoadRestartFile: Could not find restart variable: 7
WARNING:: LoadRestartFile: Could not find restart variable: 7
WARNING:: LoadRestartFile: Could not find restart variable: 7
WARNING:: LoadRestartFile: Could not find restart variable: 7
WARNING:: LoadRestartFile: Could not find restart variable: 7
WARNING:: LoadRestartFile: Could not find restart variable: 7
WARNING:: LoadRestartFile: Could not find restart variable: 7
WARNING:: LoadRestartFile: Could not find restart variable: 7
WARNING:: LoadRestartFile: Could not find restart variable: 7
WARNING:: LoadRestartFile: Could not find restart variable: 7
WARNING:: LoadRestartFile: Could not find restart variable: 7
WARNING:: LoadRestartFile: Could not find restart variable: 7
WARNING:: LoadRestartFile: Could not find restart variable: 7
WARNING:: LoadRestartFile: Could not find restart variable: 7
WARNING:: LoadRestartFile: Could not find restart variable: 7
WARNING:: LoadRestartFile: Could not find restart variable: 7
WARNING:: LoadRestartFile: Could not find restart variable: 7
WARNING:: LoadRestartFile: Could not find restart variable: 7
WARNING:: LoadRestartFile: Could not find restart variable: 7
WARNING:: LoadRestartFile: Could not find restart variable: 7
ElmerSolver: Number of timesteps to be saved: 300
SingleSolver: Attempting to call solver
SingleSolver: Solver Equation string is: mapcoordinate
StructuredMeshMapper: ---------------------------------------
StructuredMeshMapper: Performing mapping on a structured mesh
StructuredMeshMapper: ---------------------------------------
DetectExtrudedStructure: Determining extruded structure
DetectExtrudedStructure: Unit vector of direction:   0.000   0.000   1.000
DetectExtrudedStructure: determine top and bottom pointers
DetectExtrudedStructure: Layered structure detected in 14 cycles
DetectExtrudedStructure:  Top and bottom pointer init time:    1.9019999999998483E-003
DetectExtrudedStructure: Top and bottom pointer init rounds: 14
DetectExtrudedStructure: Number of nodes at the top: 365
DetectExtrudedStructure: Number of nodes at the bottom: 365
StructuredMeshMapper: Adjusting upper surface to maintain minimum height to: 0.1100E+02
StructuredMeshMapper: > Correct Surface < in case of intersecting upper and lower surface
StructuredMeshMapper: There seems to be 60 (out of 5475) limited heights!
StructuredMeshMapper:  Active coordinate mapping time:    2.1399999999993646E-004
Loading user function library: [StructuredMeshMapper]...[StructuredMeshMapper_post]
MAIN: 
MAIN: -------------------------------------
MAIN:  Steady state iteration:            1
MAIN: -------------------------------------
MAIN: 
SingleSolver: Attempting to call solver
SingleSolver: Solver Equation string is: projectef
StructuredProjectToPlane: ------------------------------------------
StructuredProjectToPlane: Performing projection on a structured mesh
StructuredProjectToPlane: ------------------------------------------
DetectExtrudedStructure: Determining extruded structure
DetectExtrudedStructure: Unit vector of direction:   0.000   0.000   1.000
DetectExtrudedStructure: determine top and bottom pointers
DetectExtrudedStructure: Layered structure detected in 14 cycles
DetectExtrudedStructure:  Top and bottom pointer init time:    1.9520000000001758E-003
DetectExtrudedStructure: Top and bottom pointer init rounds: 14
DetectExtrudedStructure: Number of nodes at the top: 365
DetectExtrudedStructure: Number of nodes at the bottom: 365
StructuredProjectToPlane: Creating variable Target Variable 1 At Bottom at top
StructuredProjectToPlane: Created variable: bottom ef
StructuredProjectToPlane:  Projection time:    2.0399999999987095E-004
StructuredProjectToPlane: ------------------------------------------
Loading user function library: [StructuredProjectToPlane]...[StructuredProjectToPlane_post]
ListToCRSMatrix: Matrix format changed from CRS to List
List_ToCRSMatrix: Number of entries in CRS matrix: 1492272
List_ToCRSMatrix: Matrix format changed from List to CRS
SingleSolver: Attempting to call solver
SingleSolver: Solver Equation string is: navier-stokes
FlowSolver: Solving the Navier-Stokes equations
FlowSolve: Enforcing relative pressure relaxation
FlowSolve: 
FlowSolve: 
FlowSolve: -------------------------------------
FlowSolve:  NAVIER-STOKES ITERATION           1
FlowSolve: -------------------------------------
FlowSolve: 
FlowSolve: Starting Assembly...
FlowSolve: Assembly:
: .Saving bulk values for: navier-stokes
FlowSolve: Assembly done
SeaPressure: Sea level =     0.0000
DefUtils::DefaultDirichletBCs: Setting Dirichlet boundary conditions
EnforceDirichletConditions: Applying Dirichlet conditions using scaled diagonal
FlowSolve: Dirichlet conditions done
SolveLinearSystem: Assuming real valued linear system
SolveLinearSystem: Linear System Solver: direct
SolveLinearSystem: Parallel linear System Solver: direct
DirectSolver: Using direct method: mumps
 ** ERROR RETURN ** FROM DMUMPS INFO(1)=   -1
 ** INFO(2)=              98
 ** ERROR RETURN ** FROM DMUMPS INFO(1)=   -1
 ** INFO(2)=              98
 ** ERROR RETURN ** FROM DMUMPS INFO(1)=   -1
 ** INFO(2)=              98
 ** ERROR RETURN ** FROM DMUMPS INFO(1)=   -1
 ** INFO(2)=              98
 ** ERROR RETURN ** FROM DMUMPS INFO(1)=   -1
 ** INFO(2)=              98
 ** ERROR RETURN ** FROM DMUMPS INFO(1)=   -1
 ** INFO(2)=              98
 ** ERROR RETURN ** FROM DMUMPS INFO(1)=   -1
 ** INFO(2)=              98
 ** ERROR RETURN ** FROM DMUMPS INFO(1)=   -1
 ** INFO(2)=              98
 ** ERROR RETURN ** FROM DMUMPS INFO(1)=   -1
 ** INFO(2)=              98
 ** ERROR RETURN ** FROM DMUMPS INFO(1)=   -1
 ** INFO(2)=              98
 ** ERROR RETURN ** FROM DMUMPS INFO(1)=   -1
 ** INFO(2)=              98
 ** ERROR RETURN ** FROM DMUMPS INFO(1)=   -1
 ** INFO(2)=              98
 ** ERROR RETURN ** FROM DMUMPS INFO(1)=   -1
 ** INFO(2)=              98
 ** ERROR RETURN ** FROM DMUMPS INFO(1)=   -1
 ** INFO(2)=              98
 ** ERROR RETURN ** FROM DMUMPS INFO(1)=   -1
 ** INFO(2)=              98
 ** ERROR RETURN ** FROM DMUMPS INFO(1)=   -1
 ** INFO(2)=              98
 ** ERROR RETURN ** FROM DMUMPS INFO(1)=   -1
 ** INFO(2)=              98
 ** ERROR RETURN ** FROM DMUMPS INFO(1)=   -1
 ** INFO(2)=              98
 ** ERROR RETURN ** FROM DMUMPS INFO(1)=   -1
 ** INFO(2)=              98
 ** ERROR RETURN ** FROM DMUMPS INFO(1)=   -1
 ** INFO(2)=              98
 ** ERROR RETURN ** FROM DMUMPS INFO(1)=   -1
 ** INFO(2)=              98
 ** ERROR RETURN ** FROM DMUMPS INFO(1)=   -1
 ** INFO(2)=              98
 ** ERROR RETURN ** FROM DMUMPS INFO(1)=   -1
 ** INFO(2)=              98
 ** ERROR RETURN ** FROM DMUMPS INFO(1)=   -1
 ** INFO(2)=              98
 ** ERROR RETURN ** FROM DMUMPS INFO(1)=   -1
 ** INFO(2)=              98
 ** ERROR RETURN ** FROM DMUMPS INFO(1)=   -1
 ** INFO(2)=              98
 ** ERROR RETURN ** FROM DMUMPS INFO(1)=   -1
 ** INFO(2)=              98
 ** ERROR RETURN ** FROM DMUMPS INFO(1)=   -1
 ** INFO(2)=              98
 ** ERROR RETURN ** FROM DMUMPS INFO(1)=   -1
 ** INFO(2)=              98
 ** ERROR RETURN ** FROM DMUMPS INFO(1)=   -1
 ** INFO(2)=              98
 ** ERROR RETURN ** FROM DMUMPS INFO(1)=   -1
 ** INFO(2)=              98
 ** ERROR RETURN ** FROM DMUMPS INFO(1)=   -1
 ** INFO(2)=              98
 ** ERROR RETURN ** FROM DMUMPS INFO(1)=   -1
 ** INFO(2)=              98
 ** ERROR RETURN ** FROM DMUMPS INFO(1)=   -1
 ** INFO(2)=              98
 ** ERROR RETURN ** FROM DMUMPS INFO(1)=   -1
 ** INFO(2)=              98
 ** ERROR RETURN ** FROM DMUMPS INFO(1)=   -1
 ** INFO(2)=              98
 ** ERROR RETURN ** FROM DMUMPS INFO(1)=   -1
 ** INFO(2)=              98
 ** ERROR RETURN ** FROM DMUMPS INFO(1)=   -1
 ** INFO(2)=              98
 ** ERROR RETURN ** FROM DMUMPS INFO(1)=   -1
 ** INFO(2)=              98
 ** ERROR RETURN ** FROM DMUMPS INFO(1)=   -1
 ** INFO(2)=              98
 ** ERROR RETURN ** FROM DMUMPS INFO(1)=   -1
 ** INFO(2)=              98
 ** ERROR RETURN ** FROM DMUMPS INFO(1)=   -1
 ** INFO(2)=              98
 ** ERROR RETURN ** FROM DMUMPS INFO(1)=   -1
 ** INFO(2)=              98
 ** ERROR RETURN ** FROM DMUMPS INFO(1)=   -1
 ** INFO(2)=              98
 ** ERROR RETURN ** FROM DMUMPS INFO(1)=   -1
 ** INFO(2)=              98
 ** ERROR RETURN ** FROM DMUMPS INFO(1)=   -1
 ** INFO(2)=              98
 ** ERROR RETURN ** FROM DMUMPS INFO(1)=   -1
 ** INFO(2)=              98
 ** ERROR RETURN ** FROM DMUMPS INFO(1)=   -1
 ** INFO(2)=              98
 ** ERROR RETURN ** FROM DMUMPS INFO(1)=   -1
 ** INFO(2)=              98
 ** ERROR RETURN ** FROM DMUMPS INFO(1)=   -1
 ** INFO(2)=              98
 ** ERROR RETURN ** FROM DMUMPS INFO(1)=   -1
 ** INFO(2)=              98
 ** ERROR RETURN ** FROM DMUMPS INFO(1)=   -1
 ** INFO(2)=              98
 ** ERROR RETURN ** FROM DMUMPS INFO(1)=   -1
 ** INFO(2)=              98
 ** ERROR RETURN ** FROM DMUMPS INFO(1)=   -1
 ** INFO(2)=              98
 ** ERROR RETURN ** FROM DMUMPS INFO(1)=   -1
 ** INFO(2)=              98
 ** ERROR RETURN ** FROM DMUMPS INFO(1)=   -1
 ** INFO(2)=              98
 ** ERROR RETURN ** FROM DMUMPS INFO(1)=   -1
 ** INFO(2)=              98
 ** ERROR RETURN ** FROM DMUMPS INFO(1)=   -1
 ** INFO(2)=              98
 ** ERROR RETURN ** FROM DMUMPS INFO(1)=   -1
 ** INFO(2)=              98
 ** ERROR RETURN ** FROM DMUMPS INFO(1)=   -1
 ** INFO(2)=              98
 ** ERROR RETURN ** FROM DMUMPS INFO(1)=   -1
 ** INFO(2)=              98
 ** ERROR RETURN ** FROM DMUMPS INFO(1)=   -1
 ** INFO(2)=              98
 ** ERROR RETURN ** FROM DMUMPS INFO(1)=   -1
 ** INFO(2)=              98
 ** ERROR RETURN ** FROM DMUMPS INFO(1)=   -1
 ** INFO(2)=              98
 ** ERROR RETURN ** FROM DMUMPS INFO(1)=   -1
 ** INFO(2)=              98
 ** ERROR RETURN ** FROM DMUMPS INFO(1)=   -1
 ** INFO(2)=              98
 ** ERROR RETURN ** FROM DMUMPS INFO(1)=   -1
 ** INFO(2)=              98
 ** ERROR RETURN ** FROM DMUMPS INFO(1)=   -1
 ** INFO(2)=              98
 ** ERROR RETURN ** FROM DMUMPS INFO(1)=   -1
 ** INFO(2)=              98
 ** ERROR RETURN ** FROM DMUMPS INFO(1)=   -1
 ** INFO(2)=              98
 ** ERROR RETURN ** FROM DMUMPS INFO(1)=   -1
 ** INFO(2)=              98
 ** ERROR RETURN ** FROM DMUMPS INFO(1)=   -1
 ** INFO(2)=              98
 ** ERROR RETURN ** FROM DMUMPS INFO(1)=   -1
 ** INFO(2)=              98
 ** ERROR RETURN ** FROM DMUMPS INFO(1)=   -1
 ** INFO(2)=              98
 ** ERROR RETURN ** FROM DMUMPS INFO(1)=   -1
 ** INFO(2)=              98
 ** ERROR RETURN ** FROM DMUMPS INFO(1)=   -1
 ** INFO(2)=              98
 ** ERROR RETURN ** FROM DMUMPS INFO(1)=   -1
 ** INFO(2)=              98
 ** ERROR RETURN ** FROM DMUMPS INFO(1)=   -1
 ** INFO(2)=              98
 ** ERROR RETURN ** FROM DMUMPS INFO(1)=   -1
 ** INFO(2)=              98
 ** ERROR RETURN ** FROM DMUMPS INFO(1)=   -1
 ** INFO(2)=              98
 ** ERROR RETURN ** FROM DMUMPS INFO(1)=   -1
 ** INFO(2)=              98
 ** ERROR RETURN ** FROM DMUMPS INFO(1)=   -1
 ** INFO(2)=              98
 ** ERROR RETURN ** FROM DMUMPS INFO(1)=   -1
 ** INFO(2)=              98
 ** ERROR RETURN ** FROM DMUMPS INFO(1)=   -1
 ** INFO(2)=              98
 ** ERROR RETURN ** FROM DMUMPS INFO(1)=   -1
 ** INFO(2)=              98
 ** ERROR RETURN ** FROM DMUMPS INFO(1)=   -1
 ** INFO(2)=              98
 ** ERROR RETURN ** FROM DMUMPS INFO(1)=   -1
 ** INFO(2)=              98
 ** ERROR RETURN ** FROM DMUMPS INFO(1)=   -1
 ** INFO(2)=              98
 ** ERROR RETURN ** FROM DMUMPS INFO(1)=   -1
 ** INFO(2)=              98
 ** ERROR RETURN ** FROM DMUMPS INFO(1)=   -1
 ** INFO(2)=              98
 ** ERROR RETURN ** FROM DMUMPS INFO(1)=   -1
 ** INFO(2)=              98
 ** ERROR RETURN ** FROM DMUMPS INFO(1)=   -1
 ** INFO(2)=              98
 ** ERROR RETURN ** FROM DMUMPS INFO(1)=   -1
 ** INFO(2)=              98
 ** ERROR RETURN ** FROM DMUMPS INFO(1)=   -1
 ** INFO(2)=              98
 ** ERROR RETURN ** FROM DMUMPS INFO(1)=   -1
 ** INFO(2)=              98
 ** ERROR RETURN ** FROM DMUMPS INFO(1)=   -1
 ** INFO(2)=              98
 ** ERROR RETURN ** FROM DMUMPS INFO(1)=   -1
 ** INFO(2)=              98
 ** ERROR RETURN ** FROM DMUMPS INFO(1)=   -1
 ** INFO(2)=              98
 ** ERROR RETURN ** FROM DMUMPS INFO(1)=   -1
 ** INFO(2)=              98
 ** ERROR RETURN ** FROM DMUMPS INFO(1)=   -1
 ** INFO(2)=              98
 ** ERROR RETURN ** FROM DMUMPS INFO(1)=   -1
 ** INFO(2)=              98
 ** ERROR RETURN ** FROM DMUMPS INFO(1)=   -1
 ** INFO(2)=              98
 ** ERROR RETURN ** FROM DMUMPS INFO(1)=   -1
 ** INFO(2)=              98
 ** ERROR RETURN ** FROM DMUMPS INFO(1)=   -1
 ** INFO(2)=              98
 ** ERROR RETURN ** FROM DMUMPS INFO(1)=   -1
 ** INFO(2)=              98
 ** ERROR RETURN ** FROM DMUMPS INFO(1)=   -1
 ** INFO(2)=              98
 ** ERROR RETURN ** FROM DMUMPS INFO(1)=   -1
 ** INFO(2)=              98
 ** ERROR RETURN ** FROM DMUMPS INFO(1)=   -1
 ** INFO(2)=              98
 ** ERROR RETURN ** FROM DMUMPS INFO(1)=   -1
 ** INFO(2)=              98
 ** ERROR RETURN ** FROM DMUMPS INFO(1)=   -1
 ** INFO(2)=              98
 ** ERROR RETURN ** FROM DMUMPS INFO(1)=   -1
 ** INFO(2)=              98
 ** ERROR RETURN ** FROM DMUMPS INFO(1)=   -1
 ** INFO(2)=              98
 ** ERROR RETURN ** FROM DMUMPS INFO(1)=   -1
 ** INFO(2)=              98
 ** ERROR RETURN ** FROM DMUMPS INFO(1)=   -1
 ** INFO(2)=              98
 ** ERROR RETURN ** FROM DMUMPS INFO(1)=   -1
 ** INFO(2)=              98
 ** ERROR RETURN ** FROM DMUMPS INFO(1)=   -1
 ** INFO(2)=              98
 ** ERROR RETURN ** FROM DMUMPS INFO(1)=   -1
 ** INFO(2)=              98
 ** ERROR RETURN ** FROM DMUMPS INFO(1)=   -1
 ** INFO(2)=              98
 ** ERROR RETURN ** FROM DMUMPS INFO(1)=   -9
 ** INFO(2)=       114099230
 ** ERROR RETURN ** FROM DMUMPS INFO(1)=   -1
 ** INFO(2)=              98
 ** ERROR RETURN ** FROM DMUMPS INFO(1)=   -1
 ** INFO(2)=              98
 ** ERROR RETURN ** FROM DMUMPS INFO(1)=   -1
 ** INFO(2)=              98
 ** ERROR RETURN ** FROM DMUMPS INFO(1)=   -1
 ** INFO(2)=              98
 ** ERROR RETURN ** FROM DMUMPS INFO(1)=   -1
 ** INFO(2)=              98
 ** ERROR RETURN ** FROM DMUMPS INFO(1)=   -1
 ** INFO(2)=              98
 ** ERROR RETURN ** FROM DMUMPS INFO(1)=   -1
 ** INFO(2)=              98
 ** ERROR RETURN ** FROM DMUMPS INFO(1)=   -1
 ** INFO(2)=              98
 ** ERROR RETURN ** FROM DMUMPS INFO(1)=   -1
 ** INFO(2)=              98
 ** ERROR RETURN ** FROM DMUMPS INFO(1)=   -3
 ** INFO(2)=               3
 ** ERROR RETURN ** FROM DMUMPS INFO(1)=   -3
 ** INFO(2)=               3
 ** ERROR RETURN ** FROM DMUMPS INFO(1)=   -3
 ** INFO(2)=               3
 ** ERROR RETURN ** FROM DMUMPS INFO(1)=   -3
 ** INFO(2)=               3
 ** ERROR RETURN ** FROM DMUMPS INFO(1)=   -3
 ** INFO(2)=               3
 ** ERROR RETURN ** FROM DMUMPS INFO(1)=   -3
 ** INFO(2)=               3
 ** ERROR RETURN ** FROM DMUMPS INFO(1)=   -3
 ** INFO(2)=               3
 ** ERROR RETURN ** FROM DMUMPS INFO(1)=   -3
 ** INFO(2)=               3
 ** ERROR RETURN ** FROM DMUMPS INFO(1)=   -3
 ** INFO(2)=               3
 ** ERROR RETURN ** FROM DMUMPS INFO(1)=   -3
 ** INFO(2)=               3
 ** ERROR RETURN ** FROM DMUMPS INFO(1)=   -3
 ** INFO(2)=               3
 ** ERROR RETURN ** FROM DMUMPS INFO(1)=   -3
 ** INFO(2)=               3
 ** ERROR RETURN ** FROM DMUMPS INFO(1)=   -3
 ** INFO(2)=               3
 ** ERROR RETURN ** FROM DMUMPS INFO(1)=   -3
 ** INFO(2)=               3
 ** ERROR RETURN ** FROM DMUMPS INFO(1)=   -3
 ** INFO(2)=               3
 ** ERROR RETURN ** FROM DMUMPS INFO(1)=   -3
 ** INFO(2)=               3
 ** ERROR RETURN ** FROM DMUMPS INFO(1)=   -3
 ** INFO(2)=               3
 ** ERROR RETURN ** FROM DMUMPS INFO(1)=   -3
 ** INFO(2)=               3
 ** ERROR RETURN ** FROM DMUMPS INFO(1)=   -3
 ** INFO(2)=               3
 ** ERROR RETURN ** FROM DMUMPS INFO(1)=   -3
 ** INFO(2)=               3
 ** ERROR RETURN ** FROM DMUMPS INFO(1)=   -3
 ** INFO(2)=               3
 ** ERROR RETURN ** FROM DMUMPS INFO(1)=   -3
 ** INFO(2)=               3
 ** ERROR RETURN ** FROM DMUMPS INFO(1)=   -3
 ** INFO(2)=               3
 ** ERROR RETURN ** FROM DMUMPS INFO(1)=   -3
 ** INFO(2)=               3
 ** ERROR RETURN ** FROM DMUMPS INFO(1)=   -3
 ** INFO(2)=               3
 ** ERROR RETURN ** FROM DMUMPS INFO(1)=   -3
 ** INFO(2)=               3
 ** ERROR RETURN ** FROM DMUMPS INFO(1)=   -3
 ** INFO(2)=               3
 ** ERROR RETURN ** FROM DMUMPS INFO(1)=   -3
 ** INFO(2)=               3
 ** ERROR RETURN ** FROM DMUMPS INFO(1)=   -3
 ** INFO(2)=               3
 ** ERROR RETURN ** FROM DMUMPS INFO(1)=   -3
 ** INFO(2)=               3
 ** ERROR RETURN ** FROM DMUMPS INFO(1)=   -3
 ** INFO(2)=               3
 ** ERROR RETURN ** FROM DMUMPS INFO(1)=   -3
 ** INFO(2)=               3
 ** ERROR RETURN ** FROM DMUMPS INFO(1)=   -3
 ** INFO(2)=               3
 ** ERROR RETURN ** FROM DMUMPS INFO(1)=   -3
 ** INFO(2)=               3
 ** ERROR RETURN ** FROM DMUMPS INFO(1)=   -3
 ** INFO(2)=               3
 ** ERROR RETURN ** FROM DMUMPS INFO(1)=   -3
 ** INFO(2)=               3
 ** ERROR RETURN ** FROM DMUMPS INFO(1)=   -3
 ** INFO(2)=               3
 ** ERROR RETURN ** FROM DMUMPS INFO(1)=   -3
 ** INFO(2)=               3
 ** ERROR RETURN ** FROM DMUMPS INFO(1)=   -3
 ** INFO(2)=               3
 ** ERROR RETURN ** FROM DMUMPS INFO(1)=   -3
 ** INFO(2)=               3
 ** ERROR RETURN ** FROM DMUMPS INFO(1)=   -3
 ** INFO(2)=               3
 ** ERROR RETURN ** FROM DMUMPS INFO(1)=   -3
 ** INFO(2)=               3
 ** ERROR RETURN ** FROM DMUMPS INFO(1)=   -3
 ** INFO(2)=               3
 ** ERROR RETURN ** FROM DMUMPS INFO(1)=   -3
 ** INFO(2)=               3
 ** ERROR RETURN ** FROM DMUMPS INFO(1)=   -3
 ** INFO(2)=               3
 ** ERROR RETURN ** FROM DMUMPS INFO(1)=   -3
 ** INFO(2)=               3
 ** ERROR RETURN ** FROM DMUMPS INFO(1)=   -3
 ** INFO(2)=               3
 ** ERROR RETURN ** FROM DMUMPS INFO(1)=   -3
 ** INFO(2)=               3
 ** ERROR RETURN ** FROM DMUMPS INFO(1)=   -3
 ** INFO(2)=               3
 ** ERROR RETURN ** FROM DMUMPS INFO(1)=   -3
 ** INFO(2)=               3
 ** ERROR RETURN ** FROM DMUMPS INFO(1)=   -3
 ** INFO(2)=               3
 ** ERROR RETURN ** FROM DMUMPS INFO(1)=   -3
 ** INFO(2)=               3
 ** ERROR RETURN ** FROM DMUMPS INFO(1)=   -3
 ** INFO(2)=               3
 ** ERROR RETURN ** FROM DMUMPS INFO(1)=   -3
 ** INFO(2)=               3
 ** ERROR RETURN ** FROM DMUMPS INFO(1)=   -3
 ** INFO(2)=               3
 ** ERROR RETURN ** FROM DMUMPS INFO(1)=   -3
 ** INFO(2)=               3
 ** ERROR RETURN ** FROM DMUMPS INFO(1)=   -3
 ** INFO(2)=               3
 ** ERROR RETURN ** FROM DMUMPS INFO(1)=   -3
 ** INFO(2)=               3
 ** ERROR RETURN ** FROM DMUMPS INFO(1)=   -3
 ** INFO(2)=               3
 ** ERROR RETURN ** FROM DMUMPS INFO(1)=   -3
 ** INFO(2)=               3
 ** ERROR RETURN ** FROM DMUMPS INFO(1)=   -3
 ** INFO(2)=               3
 ** ERROR RETURN ** FROM DMUMPS INFO(1)=   -3
 ** INFO(2)=               3
 ** ERROR RETURN ** FROM DMUMPS INFO(1)=   -3
 ** INFO(2)=               3
 ** ERROR RETURN ** FROM DMUMPS INFO(1)=   -3
 ** INFO(2)=               3
 ** ERROR RETURN ** FROM DMUMPS INFO(1)=   -3
 ** INFO(2)=               3
 ** ERROR RETURN ** FROM DMUMPS INFO(1)=   -3
 ** INFO(2)=               3
 ** ERROR RETURN ** FROM DMUMPS INFO(1)=   -3
 ** INFO(2)=               3
 ** ERROR RETURN ** FROM DMUMPS INFO(1)=   -3
 ** INFO(2)=               3
 ** ERROR RETURN ** FROM DMUMPS INFO(1)=   -3
 ** INFO(2)=               3
 ** ERROR RETURN ** FROM DMUMPS INFO(1)=   -3
 ** INFO(2)=               3
 ** ERROR RETURN ** FROM DMUMPS INFO(1)=   -3
 ** INFO(2)=               3
 ** ERROR RETURN ** FROM DMUMPS INFO(1)=   -3
 ** INFO(2)=               3
 ** ERROR RETURN ** FROM DMUMPS INFO(1)=   -3
 ** INFO(2)=               3
 ** ERROR RETURN ** FROM DMUMPS INFO(1)=   -3
 ** INFO(2)=               3
 ** ERROR RETURN ** FROM DMUMPS INFO(1)=   -3
 ** INFO(2)=               3
 ** ERROR RETURN ** FROM DMUMPS INFO(1)=   -3
 ** INFO(2)=               3
 ** ERROR RETURN ** FROM DMUMPS INFO(1)=   -3
 ** INFO(2)=               3
 ** ERROR RETURN ** FROM DMUMPS INFO(1)=   -3
 ** INFO(2)=               3
 ** ERROR RETURN ** FROM DMUMPS INFO(1)=   -3
 ** INFO(2)=               3
 ** ERROR RETURN ** FROM DMUMPS INFO(1)=   -3
 ** INFO(2)=               3
 ** ERROR RETURN ** FROM DMUMPS INFO(1)=   -3
 ** INFO(2)=               3
 ** ERROR RETURN ** FROM DMUMPS INFO(1)=   -3
 ** INFO(2)=               3
 ** ERROR RETURN ** FROM DMUMPS INFO(1)=   -3
 ** INFO(2)=               3
 ** ERROR RETURN ** FROM DMUMPS INFO(1)=   -3
 ** INFO(2)=               3
 ** ERROR RETURN ** FROM DMUMPS INFO(1)=   -3
 ** INFO(2)=               3
 ** ERROR RETURN ** FROM DMUMPS INFO(1)=   -3
 ** INFO(2)=               3
 ** ERROR RETURN ** FROM DMUMPS INFO(1)=   -3
 ** INFO(2)=               3
 ** ERROR RETURN ** FROM DMUMPS INFO(1)=   -3
 ** INFO(2)=               3
 ** ERROR RETURN ** FROM DMUMPS INFO(1)=   -3
 ** INFO(2)=               3
 ** ERROR RETURN ** FROM DMUMPS INFO(1)=   -3
 ** INFO(2)=               3
 ** ERROR RETURN ** FROM DMUMPS INFO(1)=   -3
 ** INFO(2)=               3
 ** ERROR RETURN ** FROM DMUMPS INFO(1)=   -3
 ** INFO(2)=               3
 ** ERROR RETURN ** FROM DMUMPS INFO(1)=   -3
 ** INFO(2)=               3
 ** ERROR RETURN ** FROM DMUMPS INFO(1)=   -3
 ** INFO(2)=               3
 ** ERROR RETURN ** FROM DMUMPS INFO(1)=   -3
 ** INFO(2)=               3
 ** ERROR RETURN ** FROM DMUMPS INFO(1)=   -3
 ** INFO(2)=               3
 ** ERROR RETURN ** FROM DMUMPS INFO(1)=   -3
 ** INFO(2)=               3
 ** ERROR RETURN ** FROM DMUMPS INFO(1)=   -3
 ** INFO(2)=               3
 ** ERROR RETURN ** FROM DMUMPS INFO(1)=   -3
 ** INFO(2)=               3
 ** ERROR RETURN ** FROM DMUMPS INFO(1)=   -3
 ** INFO(2)=               3
 ** ERROR RETURN ** FROM DMUMPS INFO(1)=   -3
 ** INFO(2)=               3
 ** ERROR RETURN ** FROM DMUMPS INFO(1)=   -3
 ** INFO(2)=               3
 ** ERROR RETURN ** FROM DMUMPS INFO(1)=   -3
 ** INFO(2)=               3
 ** ERROR RETURN ** FROM DMUMPS INFO(1)=   -3
 ** INFO(2)=               3
 ** ERROR RETURN ** FROM DMUMPS INFO(1)=   -3
 ** INFO(2)=               3
 ** ERROR RETURN ** FROM DMUMPS INFO(1)=   -3
 ** INFO(2)=               3
 ** ERROR RETURN ** FROM DMUMPS INFO(1)=   -3
 ** INFO(2)=               3
 ** ERROR RETURN ** FROM DMUMPS INFO(1)=   -3
 ** INFO(2)=               3
 ** ERROR RETURN ** FROM DMUMPS INFO(1)=   -3
 ** INFO(2)=               3
 ** ERROR RETURN ** FROM DMUMPS INFO(1)=   -3
 ** INFO(2)=               3
 ** ERROR RETURN ** FROM DMUMPS INFO(1)=   -3
 ** INFO(2)=               3
 ** ERROR RETURN ** FROM DMUMPS INFO(1)=   -3
 ** INFO(2)=               3
 ** ERROR RETURN ** FROM DMUMPS INFO(1)=   -3
 ** INFO(2)=               3
 ** ERROR RETURN ** FROM DMUMPS INFO(1)=   -3
 ** INFO(2)=               3
 ** ERROR RETURN ** FROM DMUMPS INFO(1)=   -3
 ** INFO(2)=               3
 ** ERROR RETURN ** FROM DMUMPS INFO(1)=   -3
 ** INFO(2)=               3
 ** ERROR RETURN ** FROM DMUMPS INFO(1)=   -3
 ** INFO(2)=               3
 ** ERROR RETURN ** FROM DMUMPS INFO(1)=   -3
 ** INFO(2)=               3
 ** ERROR RETURN ** FROM DMUMPS INFO(1)=   -3
 ** INFO(2)=               3
 ** ERROR RETURN ** FROM DMUMPS INFO(1)=   -3
 ** INFO(2)=               3
 ** ERROR RETURN ** FROM DMUMPS INFO(1)=   -3
 ** INFO(2)=               3
 ** ERROR RETURN ** FROM DMUMPS INFO(1)=   -3
 ** INFO(2)=               3
 ** ERROR RETURN ** FROM DMUMPS INFO(1)=   -3
 ** INFO(2)=               3
 ** ERROR RETURN ** FROM DMUMPS INFO(1)=   -3
 ** INFO(2)=               3
 ** ERROR RETURN ** FROM DMUMPS INFO(1)=   -3
 ** INFO(2)=               3
 ** ERROR RETURN ** FROM DMUMPS INFO(1)=   -3
 ** INFO(2)=               3
 ** ERROR RETURN ** FROM DMUMPS INFO(1)=   -3
 ** INFO(2)=               3
 ** ERROR RETURN ** FROM DMUMPS INFO(1)=   -3
 ** INFO(2)=               3
