 >OBELMER SOLVER (v 8.4) STARTED AT: 2021/04/23 09:06:19
ELMER SOLVER (v 8.4) STARTED AT: 2021/04/23 09:06:19
ELMER SOLVER (v 8.4) STARTED AT: 2021/04/23 09:06:19
ELMER SOLVER (v 8.4) STARTED AT: 2021/04/23 09:06:19
ELMER SOLVER (v 8.4) STARTED AT: 2021/04/23 09:06:19
ELMER SOLVER (v 8.4) STARTED AT: 2021/04/23 09:06:19
ELMER SOLVER (v 8.4) STARTED AT: 2021/04/23 09:06:19
ELMER SOLVER (v 8.4) STARTED AT: 2021/04/23 09:06:19
ELMER SOLVER (v 8.4) STARTED AT: 2021/04/23 09:06:19
ELMER SOLVER (v 8.4) STARTED AT: 2021/04/23 09:06:19
ELMER SOLVER (v 8.4) STARTED AT: 2021/04/23 09:06:19
ELMER SOLVER (v 8.4) STARTED AT: 2021/04/23 09:06:19
ELMER SOLVER (v 8.4) STARTED AT: 2021/04/23 09:06:19
ELMER SOLVER (v 8.4) STARTED AT: 2021/04/23 09:06:19
ELMER SOLVER (v 8.4) STARTED AT: 2021/04/23 09:06:19
ELMER SOLVER (v 8.4) STARTED AT: 2021/04/23 09:06:19
ELMER SOLVER (v 8.4) STARTED AT: 2021/04/23 09:06:19
ELMER SOLVER (v 8.4) STARTED AT: 2021/04/23 09:06:19
ELMER SOLVER (v 8.4) STARTED AT: 2021/04/23 09:06:19
ELMER SOLVER (v 8.4) STARTED AT: 2021/04/23 09:06:19
ELMER SOLVER (v 8.4) STARTED AT: 2021/04/23 09:06:19
ELMER SOLVER (v 8.4) STARTED AT: 2021/04/23 09:06:19
ELMER SOLVER (v 8.4) STARTED AT: 2021/04/23 09:06:19
ELMER SOLVER (v 8.4) STARTED AT: 2021/04/23 09:06:19
ELMER SOLVER (v 8.4) STARTED AT: 2021/04/23 09:06:19
ELMER SOLVER (v 8.4) STARTED AT: 2021/04/23 09:06:19
ELMER SOLVER (v 8.4) STARTED AT: 2021/04/23 09:06:19
ELMER SOLVER (v 8.4) STARTED AT: 2021/04/23 09:06:19
ELMER SOLVER (v 8.4) STARTED AT: 2021/04/23 09:06:19
ELMER SOLVER (v 8.4) STARTED AT: 2021/04/23 09:06:19
ELMER SOLVER (v 8.4) STARTED AT: 2021/04/23 09:06:19
ELMER SOLVER (v 8.4) STARTED AT: 2021/04/23 09:06:19
ELMER SOLVER (v 8.4) STARTED AT: 2021/04/23 09:06:19
ELMER SOLVER (v 8.4) STARTED AT: 2021/04/23 09:06:19
ELMER SOLVER (v 8.4) STARTED AT: 2021/04/23 09:06:19
ELMER SOLVER (v 8.4) STARTED AT: 2021/04/23 09:06:19
ELMER SOLVER (v 8.4) STARTED AT: 2021/04/23 09:06:19
ELMER SOLVER (v 8.4) STARTED AT: 2021/04/23 09:06:19
ELMER SOLVER (v 8.4) STARTED AT: 2021/04/23 09:06:19
ELMER SOLVER (v 8.4) STARTED AT: 2021/04/23 09:06:19
ELMER SOLVER (v 8.4) STARTED AT: 2021/04/23 09:06:19
ELMER SOLVER (v 8.4) STARTED AT: 2021/04/23 09:06:19
ELMER SOLVER (v 8.4) STARTED AT: 2021/04/23 09:06:19
ELMER SOLVER (v 8.4) STARTED AT: 2021/04/23 09:06:19
ELMER SOLVER (v 8.4) STARTED AT: 2021/04/23 09:06:19
ELMER SOLVER (v 8.4) STARTED AT: 2021/04/23 09:06:19
ELMER SOLVER (v 8.4) STARTED AT: 2021/04/23 09:06:19
ELMER SOLVER (v 8.4) STARTED AT: 2021/04/23 09:06:19
ELMER SOLVER (v 8.4) STARTED AT: 2021/04/23 09:06:19
ELMER SOLVER (v 8.4) STARTED AT: 2021/04/23 09:06:19
ELMER SOLVER (v 8.4) STARTED AT: 2021/04/23 09:06:19
ELMER SOLVER (v 8.4) STARTED AT: 2021/04/23 09:06:19
ELMER SOLVER (v 8.4) STARTED AT: 2021/04/23 09:06:19
ELMER SOLVER (v 8.4) STARTED AT: 2021/04/23 09:06:19
ELMER SOLVER (v 8.4) STARTED AT: 2021/04/23 09:06:19
ELMER SOLVER (v 8.4) STARTED AT: 2021/04/23 09:06:19
ELMER SOLVER (v 8.4) STARTED AT: 2021/04/23 09:06:19
ELMER SOLVER (v 8.4) STARTED AT: 2021/04/23 09:06:19
ELMER SOLVER (v 8.4) STARTED AT: 2021/04/23 09:06:19
ELMER SOLVER (v 8.4) STARTED AT: 2021/04/23 09:06:19
ELMER SOLVER (v 8.4) STARTED AT: 2021/04/23 09:06:19
ELMER SOLVER (v 8.4) STARTED AT: 2021/04/23 09:06:19
ELMER SOLVER (v 8.4) STARTED AT: 2021/04/23 09:06:19
ELMER SOLVER (v 8.4) STARTED AT: 2021/04/23 09:06:19
ELMER SOLVER (v 8.4) STARTED AT: 2021/04/23 09:06:19
ELMER SOLVER (v 8.4) STARTED AT: 2021/04/23 09:06:19
ELMER SOLVER (v 8.4) STARTED AT: 2021/04/23 09:06:19
ELMER SOLVER (v 8.4) STARTED AT: 2021/04/23 09:06:19
ELMER SOLVER (v 8.4) STARTED AT: 2021/04/23 09:06:19
ELMER SOLVER (v 8.4) STARTED AT: 2021/04/23 09:06:19
ELMER SOLVER (v 8.4) STARTED AT: 2021/04/23 09:06:19
ELMER SOLVER (v 8.4) STARTED AT: 2021/04/23 09:06:19
ELMER SOLVER (v 8.4) STARTED AT: 2021/04/23 09:06:19
ELMER SOLVER (v 8.4) STARTED AT: 2021/04/23 09:06:19
ELMER SOLVER (v 8.4) STARTED AT: 2021/04/23 09:06:19
ELMER SOLVER (v 8.4) STARTED AT: 2021/04/23 09:06:19
ELMER SOLVER (v 8.4) STARTED AT: 2021/04/23 09:06:19
ELMER SOLVER (v 8.4) STARTED AT: 2021/04/23 09:06:19
ELMER SOLVER (v 8.4) STARTED AT: 2021/04/23 09:06:19
ELMER SOLVER (v 8.4) STARTED AT: 2021/04/23 09:06:19
ELMER SOLVER (v 8.4) STARTED AT: 2021/04/23 09:06:19
ELMER SOLVER (v 8.4) STARTED AT: 2021/04/23 09:06:19
ELMER SOLVER (v 8.4) STARTED AT: 2021/04/23 09:06:19
ELMER SOLVER (v 8.4) STARTED AT: 2021/04/23 09:06:19
ELMER SOLVER (v 8.4) STARTED AT: 2021/04/23 09:06:19
ELMER SOLVER (v 8.4) STARTED AT: 2021/04/23 09:06:19
ELMER SOLVER (v 8.4) STARTED AT: 2021/04/23 09:06:19
ELMER SOLVER (v 8.4) STARTED AT: 2021/04/23 09:06:19
ELMER SOLVER (v 8.4) STARTED AT: 2021/04/23 09:06:19
ELMER SOLVER (v 8.4) STARTED AT: 2021/04/23 09:06:19
ELMER SOLVER (v 8.4) STARTED AT: 2021/04/23 09:06:19
ELMER SOLVER (v 8.4) STARTED AT: 2021/04/23 09:06:19
ELMER SOLVER (v 8.4) STARTED AT: 2021/04/23 09:06:19
ELMER SOLVER (v 8.4) STARTED AT: 2021/04/23 09:06:19
ELMER SOLVER (v 8.4) STARTED AT: 2021/04/23 09:06:19
ELMER SOLVER (v 8.4) STARTED AT: 2021/04/23 09:06:19
ELMER SOLVER (v 8.4) STARTED AT: 2021/04/23 09:06:19
ELMER SOLVER (v 8.4) STARTED AT: 2021/04/23 09:06:19
ELMER SOLVER (v 8.4) STARTED AT: 2021/04/23 09:06:19
ELMER SOLVER (v 8.4) STARTED AT: 2021/04/23 09:06:19
ELMER SOLVER (v 8.4) STARTED AT: 2021/04/23 09:06:19
ELMER SOLVER (v 8.4) STARTED AT: 2021/04/23 09:06:19
ELMER SOLVER (v 8.4) STARTED AT: 2021/04/23 09:06:19
ELMER SOLVER (v 8.4) STARTED AT: 2021/04/23 09:06:19
ELMER SOLVER (v 8.4) STARTED AT: 2021/04/23 09:06:19
ELMER SOLVER (v 8.4) STARTED AT: 2021/04/23 09:06:19
ELMER SOLVER (v 8.4) STARTED AT: 2021/04/23 09:06:19
ELMER SOLVER (v 8.4) STARTED AT: 2021/04/23 09:06:19
ELMER SOLVER (v 8.4) STARTED AT: 2021/04/23 09:06:19
ELMER SOLVER (v 8.4) STARTED AT: 2021/04/23 09:06:19
ELMER SOLVER (v 8.4) STARTED AT: 2021/04/23 09:06:19
ELMER SOLVER (v 8.4) STARTED AT: 2021/04/23 09:06:19
ELMER SOLVER (v 8.4) STARTED AT: 2021/04/23 09:06:19
ELMER SOLVER (v 8.4) STARTED AT: 2021/04/23 09:06:19
ELMER SOLVER (v 8.4) STARTED AT: 2021/04/23 09:06:19
ELMER SOLVER (v 8.4) STARTED AT: 2021/04/23 09:06:19
ELMER SOLVER (v 8.4) STARTED AT: 2021/04/23 09:06:19
ELMER SOLVER (v 8.4) STARTED AT: 2021/04/23 09:06:19
ELMER SOLVER (v 8.4) STARTED AT: 2021/04/23 09:06:19
ELMER SOLVER (v 8.4) STARTED AT: 2021/04/23 09:06:19
ELMER SOLVER (v 8.4) STARTED AT: 2021/04/23 09:06:19
ELMER SOLVER (v 8.4) STARTED AT: 2021/04/23 09:06:19
ELMER SOLVER (v 8.4) STARTED AT: 2021/04/23 09:06:19
ELMER SOLVER (v 8.4) STARTED AT: 2021/04/23 09:06:19
ELMER SOLVER (v 8.4) STARTED AT: 2021/04/23 09:06:19
ELMER SOLVER (v 8.4) STARTED AT: 2021/04/23 09:06:19
ELMER SOLVER (v 8.4) STARTED AT: 2021/04/23 09:06:19
ELMER SOLVER (v 8.4) STARTED AT: 2021/04/23 09:06:19
ParCommInit:  Initialize #PEs:          128
ParCommInit:  Initialize #PEs:          128
ParCommInit:  Initialize #PEs:          128
ParCommInit:  Initialize #PEs:          128
ParCommInit:  Initialize #PEs:          128
ParCommInit:  Initialize #PEs:          128
ParCommInit:  Initialize #PEs:          128
ParCommInit:  Initialize #PEs:          128
ParCommInit:  Initialize #PEs:          128
ParCommInit:  Initialize #PEs:          128
ParCommInit:  Initialize #PEs:          128
ParCommInit:  Initialize #PEs:          128
ParCommInit:  Initialize #PEs:          128
ParCommInit:  Initialize #PEs:          128
ParCommInit:  Initialize #PEs:          128
ParCommInit:  Initialize #PEs:          128
ParCommInit:  Initialize #PEs:          128
ParCommInit:  Initialize #PEs:          128
ParCommInit:  Initialize #PEs:          128
ParCommInit:  Initialize #PEs:          128
ParCommInit:  Initialize #PEs:          128
ParCommInit:  Initialize #PEs:          128
ParCommInit:  Initialize #PEs:          128
ParCommInit:  Initialize #PEs:          128
ParCommInit:  Initialize #PEs:          128
ParCommInit:  Initialize #PEs:          128
ParCommInit:  Initialize #PEs:          128
ParCommInit:  Initialize #PEs:          128
ParCommInit:  Initialize #PEs:          128
ParCommInit:  Initialize #PEs:          128
ParCommInit:  Initialize #PEs:          128
ParCommInit:  Initialize #PEs:          128
ParCommInit:  Initialize #PEs:          128
ParCommInit:  Initialize #PEs:          128
ParCommInit:  Initialize #PEs:          128
ParCommInit:  Initialize #PEs:          128
ParCommInit:  Initialize #PEs:          128
ParCommInit:  Initialize #PEs:          128
ParCommInit:  Initialize #PEs:          128
ParCommInit:  Initialize #PEs:          128
ParCommInit:  Initialize #PEs:          128
ParCommInit:  Initialize #PEs:          128
ParCommInit:  Initialize #PEs:          128
ParCommInit:  Initialize #PEs:          128
ParCommInit:  Initialize #PEs:          128
ParCommInit:  Initialize #PEs:          128
ParCommInit:  Initialize #PEs:          128
ParCommInit:  Initialize #PEs:          128
ParCommInit:  Initialize #PEs:          128
ParCommInit:  Initialize #PEs:          128
ParCommInit:  Initialize #PEs:          128
ParCommInit:  Initialize #PEs:          128
ParCommInit:  Initialize #PEs:          128
ParCommInit:  Initialize #PEs:          128
ParCommInit:  Initialize #PEs:          128
ParCommInit:  Initialize #PEs:          128
ParCommInit:  Initialize #PEs:          128
ParCommInit:  Initialize #PEs:          128
ParCommInit:  Initialize #PEs:          128
ParCommInit:  Initialize #PEs:          128
ParCommInit:  Initialize #PEs:          128
ParCommInit:  Initialize #PEs:          128
ParCommInit:  Initialize #PEs:          128
ParCommInit:  Initialize #PEs:          128
ParCommInit:  Initialize #PEs:          128
ParCommInit:  Initialize #PEs:          128
ParCommInit:  Initialize #PEs:          128
ParCommInit:  Initialize #PEs:          128
ParCommInit:  Initialize #PEs:          128
ParCommInit:  Initialize #PEs:          128
ParCommInit:  Initialize #PEs:          128
ParCommInit:  Initialize #PEs:          128
ParCommInit:  Initialize #PEs:          128
ParCommInit:  Initialize #PEs:          128
ParCommInit:  Initialize #PEs:          128
ParCommInit:  Initialize #PEs:          128
ParCommInit:  Initialize #PEs:          128
ParCommInit:  Initialize #PEs:          128
ParCommInit:  Initialize #PEs:          128
ParCommInit:  Initialize #PEs:          128
ParCommInit:  Initialize #PEs:          128
ParCommInit:  Initialize #PEs:          128
ParCommInit:  Initialize #PEs:          128
ParCommInit:  Initialize #PEs:          128
ParCommInit:  Initialize #PEs:          128
ParCommInit:  Initialize #PEs:          128
ParCommInit:  Initialize #PEs:          128
ParCommInit:  Initialize #PEs:          128
ParCommInit:  Initialize #PEs:          128
ParCommInit:  Initialize #PEs:          128
ParCommInit:  Initialize #PEs:          128
ParCommInit:  Initialize #PEs:          128
ParCommInit:  Initialize #PEs:          128
ParCommInit:  Initialize #PEs:          128
ParCommInit:  Initialize #PEs:          128
ParCommInit:  Initialize #PEs:          128
ParCommInit:  Initialize #PEs:          128
ParCommInit:  Initialize #PEs:          128
ParCommInit:  Initialize #PEs:          128
ParCommInit:  Initialize #PEs:          128
ParCommInit:  Initialize #PEs:          128
ParCommInit:  Initialize #PEs:          128
ParCommInit:  Initialize #PEs:          128
ParCommInit:  Initialize #PEs:          128
ParCommInit:  Initialize #PEs:          128
ParCommInit:  Initialize #PEs:          128
ParCommInit:  Initialize #PEs:          128
ParCommInit:  Initialize #PEs:          128
ParCommInit:  Initialize #PEs:          128
ParCommInit:  Initialize #PEs:          128
ParCommInit:  Initialize #PEs:          128
ParCommInit:  Initialize #PEs:          128
ParCommInit:  Initialize #PEs:          128
ParCommInit:  Initialize #PEs:          128
ParCommInit:  Initialize #PEs:          128
ParCommInit:  Initialize #PEs:          128
ParCommInit:  Initialize #PEs:          128
ParCommInit:  Initialize #PEs:          128
ParCommInit:  Initialize #PEs:          128
ParCommInit:  Initialize #PEs:          128
ParCommInit:  Initialize #PEs:          128
ParCommInit:  Initialize #PEs:          128
ParCommInit:  Initialize #PEs:          128
ParCommInit:  Initialize #PEs:          128
ParCommInit:  Initialize #PEs:          128
ParCommInit:  Initialize #PEs:          128
ParCommInit:  Initialize #PEs:          128
ParCommInit:  Initialize #PEs:          128
MAIN: 
MAIN: =============================================================
MAIN: ElmerSolver finite element software, Welcome!
MAIN: This program is free software licensed under (L)GPL
MAIN: Copyright 1st April 1995 - , CSC - IT Center for Science Ltd.
MAIN: Webpage http://www.csc.fi/elmer, Email elmeradm@csc.fi
MAIN: Version: 8.4 (Rev: 3c3a578, Compiled: 2020-12-30)
MAIN:  Running in parallel using 128 tasks.
MAIN:  Running with just one thread per task.
MAIN:  HYPRE library linked in.
MAIN:  MUMPS library linked in.
MAIN:  Lua interpreted linked in.
MAIN: =============================================================
LoadInputFile: Reading only "Run Control" section
MAIN: 
MAIN: 
MAIN: -------------------------------------
MAIN: Reading Model: TG_OptViscDrag_S3.sif
LoadInputFile: Scanning input file: TG_OptViscDrag_S3.sif
LoadInputFile: Scanning only size info
LoadInputFile: First time visiting
LoadInputFile: Reading base load of sif file
ERROR:: Model Input: 
ERROR:: Model Input:  Unknown specifier: [bottom ef]
ERROR:: Model Input:  In section: [initial condition 1]
ERROR:: Model Input:  For property name:[ef]
ERROR:: Model Input: 
ERROR:: Model Input:  Unknown specifier: [bottom ef]
ERROR:: Model Input:  In section: [initial condition 1]
ERROR:: Model Input:  For property name:[ef]
ERROR:: Model Input: 
ERROR:: Model Input:  Unknown specifier: [bottom ef]
ERROR:: Model Input:  In section: [initial condition 1]
ERROR:: Model Input:  For property name:[ef]
ERROR:: Model Input: 
ERROR:: Model Input:  Unknown specifier: [bottom ef]
ERROR:: Model Input:  In section: [initial condition 1]
ERROR:: Model Input:  For property name:[ef]
ERROR:: Model Input: 
ERROR:: Model Input:  Unknown specifier: [bottom ef]
ERROR:: Model Input:  In section: [initial condition 1]
ERROR:: Model Input:  For property name:[ef]
ERROR:: Model Input: 
ERROR:: Model Input:  Unknown specifier: [bottom ef]
ERROR:: Model Input:  In section: [initial condition 1]
ERROR:: Model Input:  For property name:[ef]
ERROR:: Model Input: 
ERROR:: Model Input:  Unknown specifier: [bottom ef]
ERROR:: Model Input:  In section: [initial condition 1]
ERROR:: Model Input:  For property name:[ef]
ERROR:: Model Input: 
ERROR:: Model Input:  Unknown specifier: [bottom ef]
ERROR:: Model Input:  In section: [initial condition 1]
ERROR:: Model Input:  For property name:[ef]
ERROR:: Model Input: 
ERROR:: Model Input:  Unknown specifier: [bottom ef]
ERROR:: Model Input:  In section: [initial condition 1]
ERROR:: Model Input:  For property name:[ef]
ERROR:: Model Input: 
ERROR:: Model Input:  Unknown specifier: [bottom ef]
ERROR:: Model Input:  In section: [initial condition 1]
ERROR:: Model Input:  For property name:[ef]
ERROR:: Model Input: 
ERROR:: Model Input:  Unknown specifier: [bottom ef]
ERROR:: Model Input:  In section: [initial condition 1]
ERROR:: Model Input:  For property name:[ef]
ERROR:: Model Input: 
ERROR:: Model Input:  Unknown specifier: [bottom ef]
ERROR:: Model Input:  In section: [initial condition 1]
ERROR:: Model Input:  For property name:[ef]
ERROR:: Model Input: 
ERROR:: Model Input:  Unknown specifier: [bottom ef]
ERROR:: Model Input:  In section: [initial condition 1]
ERROR:: Model Input:  For property name:[ef]
ERROR:: Model Input: 
ERROR:: Model Input:  Unknown specifier: [bottom ef]
ERROR:: Model Input:  In section: [initial condition 1]
ERROR:: Model Input:  For property name:[ef]
ERROR:: Model Input: 
ERROR:: Model Input:  Unknown specifier: [bottom ef]
ERROR:: Model Input:  In section: [initial condition 1]
ERROR:: Model Input:  For property name:[ef]
ERROR:: Model Input: 
ERROR:: Model Input:  Unknown specifier: [bottom ef]
ERROR:: Model Input:  In section: [initial condition 1]
ERROR:: Model Input:  For property name:[ef]
ERROR:: Model Input: 
ERROR:: Model Input:  Unknown specifier: [bottom ef]
ERROR:: Model Input:  In section: [initial condition 1]
ERROR:: Model Input:  For property name:[ef]
ERROR:: Model Input: 
ERROR:: Model Input:  Unknown specifier: [bottom ef]
ERROR:: Model Input:  In section: [initial condition 1]
ERROR:: Model Input:  For property name:[ef]
ERROR:: Model Input: 
ERROR:: Model Input:  Unknown specifier: [bottom ef]
ERROR:: Model Input:  In section: [initial condition 1]
ERROR:: Model Input:  For property name:[ef]
ERROR:: Model Input: 
ERROR:: Model Input:  Unknown specifier: [bottom ef]
ERROR:: Model Input:  In section: [initial condition 1]
ERROR:: Model Input:  For property name:[ef]
ERROR:: Model Input: 
ERROR:: Model Input:  Unknown specifier: [bottom ef]
ERROR:: Model Input:  In section: [initial condition 1]
ERROR:: Model Input:  For property name:[ef]
ERROR:: Model Input: 
ERROR:: Model Input:  Unknown specifier: [bottom ef]
ERROR:: Model Input:  In section: [initial condition 1]
ERROR:: Model Input:  For property name:[ef]
ERROR:: Model Input: 
ERROR:: Model Input:  Unknown specifier: [bottom ef]
ERROR:: Model Input:  In section: [initial condition 1]
ERROR:: Model Input:  For property name:[ef]
ERROR:: Model Input: 
ERROR:: Model Input:  Unknown specifier: [bottom ef]
ERROR:: Model Input:  In section: [initial condition 1]
ERROR:: Model Input:  For property name:[ef]
ERROR:: Model Input: 
ERROR:: Model Input:  Unknown specifier: [bottom ef]
ERROR:: Model Input:  In section: [initial condition 1]
ERROR:: Model Input:  For property name:[ef]
ERROR:: Model Input: 
ERROR:: Model Input:  Unknown specifier: [bottom ef]
ERROR:: Model Input:  In section: [initial condition 1]
ERROR:: Model Input:  For property name:[ef]
ERROR:: Model Input: 
ERROR:: Model Input:  Unknown specifier: [bottom ef]
ERROR:: Model Input:  In section: [initial condition 1]
ERROR:: Model Input:  For property name:[ef]
ERROR:: Model Input: 
ERROR:: Model Input:  Unknown specifier: [bottom ef]
ERROR:: Model Input:  In section: [initial condition 1]
ERROR:: Model Input:  For property name:[ef]
ERROR:: Model Input: 
ERROR:: Model Input:  Unknown specifier: [bottom ef]
ERROR:: Model Input:  In section: [initial condition 1]
ERROR:: Model Input:  For property name:[ef]
ERROR:: Model Input: 
ERROR:: Model Input:  Unknown specifier: [bottom ef]
ERROR:: Model Input:  In section: [initial condition 1]
ERROR:: Model Input:  For property name:[ef]
ERROR:: Model Input: 
ERROR:: Model Input:  Unknown specifier: [bottom ef]
ERROR:: Model Input:  In section: [initial condition 1]
ERROR:: Model Input:  For property name:[ef]
ERROR:: Model Input: 
ERROR:: Model Input:  Unknown specifier: [bottom ef]
ERROR:: Model Input:  In section: [initial condition 1]
ERROR:: Model Input:  For property name:[ef]
ERROR:: Model Input: 
ERROR:: Model Input:  Unknown specifier: [bottom ef]
ERROR:: Model Input:  In section: [initial condition 1]
ERROR:: Model Input:  For property name:[ef]
ERROR:: Model Input: 
ERROR:: Model Input:  Unknown specifier: [bottom ef]
ERROR:: Model Input:  In section: [initial condition 1]
ERROR:: Model Input:  For property name:[ef]
ERROR:: Model Input: 
ERROR:: Model Input:  Unknown specifier: [bottom ef]
ERROR:: Model Input:  In section: [initial condition 1]
ERROR:: Model Input:  For property name:[ef]
ERROR:: Model Input: 
ERROR:: Model Input:  Unknown specifier: [bottom ef]
ERROR:: Model Input:  In section: [initial condition 1]
ERROR:: Model Input:  For property name:[ef]
ERROR:: Model Input: 
ERROR:: Model Input:  Unknown specifier: [bottom ef]
ERROR:: Model Input:  In section: [initial condition 1]
ERROR:: Model Input:  For property name:[ef]
ERROR:: Model Input: 
ERROR:: Model Input:  Unknown specifier: [bottom ef]
ERROR:: Model Input:  In section: [initial condition 1]
ERROR:: Model Input:  For property name:[ef]
ERROR:: Model Input: 
ERROR:: Model Input:  Unknown specifier: [bottom ef]
ERROR:: Model Input:  In section: [initial condition 1]
ERROR:: Model Input:  For property name:[ef]
ERROR:: Model Input: 
ERROR:: Model Input:  Unknown specifier: [bottom ef]
ERROR:: Model Input:  In section: [initial condition 1]
ERROR:: Model Input:  For property name:[ef]
ERROR:: Model Input: 
ERROR:: Model Input:  Unknown specifier: [bottom ef]
ERROR:: Model Input:  In section: [initial condition 1]
ERROR:: Model Input:  For property name:[ef]
ERROR:: Model Input: 
ERROR:: Model Input:  Unknown specifier: [bottom ef]
ERROR:: Model Input:  In section: [initial condition 1]
ERROR:: Model Input:  For property name:[ef]
ERROR:: Model Input: 
ERROR:: Model Input:  Unknown specifier: [bottom ef]
ERROR:: Model Input:  In section: [initial condition 1]
ERROR:: Model Input:  For property name:[ef]
ERROR:: Model Input: 
ERROR:: Model Input:  Unknown specifier: [bottom ef]
ERROR:: Model Input:  In section: [initial condition 1]
ERROR:: Model Input:  For property name:[ef]
ERROR:: Model Input: 
ERROR:: Model Input:  Unknown specifier: [bottom ef]
ERROR:: Model Input:  In section: [initial condition 1]
ERROR:: Model Input:  For property name:[ef]
ERROR:: Model Input: 
ERROR:: Model Input:  Unknown specifier: [bottom ef]
ERROR:: Model Input:  In section: [initial condition 1]
ERROR:: Model Input:  For property name:[ef]
ERROR:: Model Input: 
ERROR:: Model Input:  Unknown specifier: [bottom ef]
ERROR:: Model Input:  In section: [initial condition 1]
ERROR:: Model Input:  For property name:[ef]
ERROR:: Model Input: 
ERROR:: Model Input:  Unknown specifier: [bottom ef]
ERROR:: Model Input:  In section: [initial condition 1]
ERROR:: Model Input:  For property name:[ef]
ERROR:: Model Input: 
ERROR:: Model Input:  Unknown specifier: [bottom ef]
ERROR:: Model Input:  In section: [initial condition 1]
ERROR:: Model Input:  For property name:[ef]
ERROR:: Model Input: 
ERROR:: Model Input:  Unknown specifier: [bottom ef]
ERROR:: Model Input:  In section: [initial condition 1]
ERROR:: Model Input:  For property name:[ef]
ERROR:: Model Input: 
ERROR:: Model Input:  Unknown specifier: [bottom ef]
ERROR:: Model Input:  In section: [initial condition 1]
ERROR:: Model Input:  For property name:[ef]
ERROR:: Model Input: 
ERROR:: Model Input:  Unknown specifier: [bottom ef]
ERROR:: Model Input:  In section: [initial condition 1]
ERROR:: Model Input:  For property name:[ef]
ERROR:: Model Input: 
ERROR:: Model Input:  Unknown specifier: [bottom ef]
ERROR:: Model Input:  In section: [initial condition 1]
ERROR:: Model Input:  For property name:[ef]
ERROR:: Model Input: 
ERROR:: Model Input:  Unknown specifier: [bottom ef]
ERROR:: Model Input:  In section: [initial condition 1]
ERROR:: Model Input:  For property name:[ef]
ERROR:: Model Input: 
ERROR:: Model Input:  Unknown specifier: [bottom ef]
ERROR:: Model Input:  In section: [initial condition 1]
ERROR:: Model Input:  For property name:[ef]
ERROR:: Model Input: 
ERROR:: Model Input:  Unknown specifier: [bottom ef]
ERROR:: Model Input:  In section: [initial condition 1]
ERROR:: Model Input:  For property name:[ef]
ERROR:: Model Input: 
ERROR:: Model Input:  Unknown specifier: [bottom ef]
ERROR:: Model Input:  In section: [initial condition 1]
ERROR:: Model Input:  For property name:[ef]
ERROR:: Model Input: 
ERROR:: Model Input:  Unknown specifier: [bottom ef]
ERROR:: Model Input:  In section: [initial condition 1]
ERROR:: Model Input:  For property name:[ef]
ERROR:: Model Input: 
ERROR:: Model Input:  Unknown specifier: [bottom ef]
ERROR:: Model Input:  In section: [initial condition 1]
ERROR:: Model Input:  For property name:[ef]
ERROR:: Model Input: 
ERROR:: Model Input:  Unknown specifier: [bottom ef]
ERROR:: Model Input:  In section: [initial condition 1]
ERROR:: Model Input:  For property name:[ef]
ERROR:: Model Input: 
ERROR:: Model Input:  Unknown specifier: [bottom ef]
ERROR:: Model Input:  In section: [initial condition 1]
ERROR:: Model Input:  For property name:[ef]
ERROR:: Model Input: 
ERROR:: Model Input:  Unknown specifier: [bottom ef]
ERROR:: Model Input:  In section: [initial condition 1]
ERROR:: Model Input:  For property name:[ef]
ERROR:: Model Input: 
ERROR:: Model Input:  Unknown specifier: [bottom ef]
ERROR:: Model Input:  In section: [initial condition 1]
ERROR:: Model Input:  For property name:[ef]
ERROR:: Model Input: 
ERROR:: Model Input:  Unknown specifier: [bottom ef]
ERROR:: Model Input:  In section: [initial condition 1]
ERROR:: Model Input:  For property name:[ef]
ERROR:: Model Input: 
ERROR:: Model Input:  Unknown specifier: [bottom ef]
ERROR:: Model Input:  In section: [initial condition 1]
ERROR:: Model Input:  For property name:[ef]
ERROR:: Model Input: 
ERROR:: Model Input:  Unknown specifier: [bottom ef]
ERROR:: Model Input:  In section: [initial condition 1]
ERROR:: Model Input:  For property name:[ef]
ERROR:: Model Input: 
ERROR:: Model Input:  Unknown specifier: [bottom ef]
ERROR:: Model Input:  In section: [initial condition 1]
ERROR:: Model Input:  For property name:[ef]
ERROR:: Model Input: 
ERROR:: Model Input:  Unknown specifier: [bottom ef]
ERROR:: Model Input:  In section: [initial condition 1]
ERROR:: Model Input:  For property name:[ef]
ERROR:: Model Input: 
ERROR:: Model Input:  Unknown specifier: [bottom ef]
ERROR:: Model Input:  In section: [initial condition 1]
ERROR:: Model Input:  For property name:[ef]
ERROR:: Model Input: 
ERROR:: Model Input:  Unknown specifier: [bottom ef]
ERROR:: Model Input:  In section: [initial condition 1]
ERROR:: Model Input:  For property name:[ef]
ERROR:: Model Input: 
ERROR:: Model Input:  Unknown specifier: [bottom ef]
ERROR:: Model Input:  In section: [initial condition 1]
ERROR:: Model Input:  For property name:[ef]
ERROR:: Model Input: 
ERROR:: Model Input:  Unknown specifier: [bottom ef]
ERROR:: Model Input:  In section: [initial condition 1]
ERROR:: Model Input:  For property name:[ef]
ERROR:: Model Input: 
ERROR:: Model Input:  Unknown specifier: [bottom ef]
ERROR:: Model Input:  In section: [initial condition 1]
ERROR:: Model Input:  For property name:[ef]
ERROR:: Model Input: 
ERROR:: Model Input:  Unknown specifier: [bottom ef]
ERROR:: Model Input:  In section: [initial condition 1]
ERROR:: Model Input:  For property name:[ef]
ERROR:: Model Input: 
ERROR:: Model Input:  Unknown specifier: [bottom ef]
ERROR:: Model Input:  In section: [initial condition 1]
ERROR:: Model Input:  For property name:[ef]
ERROR:: Model Input: 
ERROR:: Model Input:  Unknown specifier: [bottom ef]
ERROR:: Model Input:  In section: [initial condition 1]
ERROR:: Model Input:  For property name:[ef]
ERROR:: Model Input: 
ERROR:: Model Input:  Unknown specifier: [bottom ef]
ERROR:: Model Input:  In section: [initial condition 1]
ERROR:: Model Input:  For property name:[ef]
ERROR:: Model Input: 
ERROR:: Model Input:  Unknown specifier: [bottom ef]
ERROR:: Model Input:  In section: [initial condition 1]
ERROR:: Model Input:  For property name:[ef]
ERROR:: Model Input: 
ERROR:: Model Input:  Unknown specifier: [bottom ef]
ERROR:: Model Input:  In section: [initial condition 1]
ERROR:: Model Input:  For property name:[ef]
ERROR:: Model Input: 
ERROR:: Model Input:  Unknown specifier: [bottom ef]
ERROR:: Model Input:  In section: [initial condition 1]
ERROR:: Model Input:  For property name:[ef]
ERROR:: Model Input: 
ERROR:: Model Input:  Unknown specifier: [bottom ef]
ERROR:: Model Input:  In section: [initial condition 1]
ERROR:: Model Input:  For property name:[ef]
ERROR:: Model Input: 
ERROR:: Model Input:  Unknown specifier: [bottom ef]
ERROR:: Model Input:  In section: [initial condition 1]
ERROR:: Model Input:  For property name:[ef]
ERROR:: Model Input: 
ERROR:: Model Input:  Unknown specifier: [bottom ef]
ERROR:: Model Input:  In section: [initial condition 1]
ERROR:: Model Input:  For property name:[ef]
ERROR:: Model Input: 
ERROR:: Model Input:  Unknown specifier: [bottom ef]
ERROR:: Model Input:  In section: [initial condition 1]
ERROR:: Model Input:  For property name:[ef]
ERROR:: Model Input: 
ERROR:: Model Input:  Unknown specifier: [bottom ef]
ERROR:: Model Input:  In section: [initial condition 1]
ERROR:: Model Input:  For property name:[ef]
ERROR:: Model Input: 
ERROR:: Model Input:  Unknown specifier: [bottom ef]
ERROR:: Model Input:  In section: [initial condition 1]
ERROR:: Model Input:  For property name:[ef]
ERROR:: Model Input: 
ERROR:: Model Input:  Unknown specifier: [bottom ef]
ERROR:: Model Input:  In section: [initial condition 1]
ERROR:: Model Input:  For property name:[ef]
ERROR:: Model Input: 
ERROR:: Model Input:  Unknown specifier: [bottom ef]
ERROR:: Model Input:  In section: [initial condition 1]
ERROR:: Model Input:  For property name:[ef]
ERROR:: Model Input: 
ERROR:: Model Input:  Unknown specifier: [bottom ef]
ERROR:: Model Input:  In section: [initial condition 1]
ERROR:: Model Input:  For property name:[ef]
ERROR:: Model Input: 
ERROR:: Model Input:  Unknown specifier: [bottom ef]
ERROR:: Model Input:  In section: [initial condition 1]
ERROR:: Model Input:  For property name:[ef]
ERROR:: Model Input: 
ERROR:: Model Input:  Unknown specifier: [bottom ef]
ERROR:: Model Input:  In section: [initial condition 1]
ERROR:: Model Input:  For property name:[ef]
ERROR:: Model Input: 
ERROR:: Model Input:  Unknown specifier: [bottom ef]
ERROR:: Model Input:  In section: [initial condition 1]
ERROR:: Model Input:  For property name:[ef]
ERROR:: Model Input: 
ERROR:: Model Input:  Unknown specifier: [bottom ef]
ERROR:: Model Input:  In section: [initial condition 1]
ERROR:: Model Input:  For property name:[ef]
ERROR:: Model Input: 
ERROR:: Model Input:  Unknown specifier: [bottom ef]
ERROR:: Model Input:  In section: [initial condition 1]
ERROR:: Model Input:  For property name:[ef]
ERROR:: Model Input: 
ERROR:: Model Input:  Unknown specifier: [bottom ef]
ERROR:: Model Input:  In section: [initial condition 1]
ERROR:: Model Input:  For property name:[ef]
ERROR:: Model Input: 
ERROR:: Model Input:  Unknown specifier: [bottom ef]
ERROR:: Model Input:  In section: [initial condition 1]
ERROR:: Model Input:  For property name:[ef]
ERROR:: Model Input: 
ERROR:: Model Input:  Unknown specifier: [bottom ef]
ERROR:: Model Input:  In section: [initial condition 1]
ERROR:: Model Input:  For property name:[ef]
ERROR:: Model Input: 
ERROR:: Model Input:  Unknown specifier: [bottom ef]
ERROR:: Model Input:  In section: [initial condition 1]
ERROR:: Model Input:  For property name:[ef]
ERROR:: Model Input: 
ERROR:: Model Input:  Unknown specifier: [bottom ef]
ERROR:: Model Input:  In section: [initial condition 1]
ERROR:: Model Input:  For property name:[ef]
ERROR:: Model Input: 
ERROR:: Model Input:  Unknown specifier: [bottom ef]
ERROR:: Model Input:  In section: [initial condition 1]
ERROR:: Model Input:  For property name:[ef]
ERROR:: Model Input: 
ERROR:: Model Input:  Unknown specifier: [bottom ef]
ERROR:: Model Input:  In section: [initial condition 1]
ERROR:: Model Input:  For property name:[ef]
ERROR:: Model Input: 
ERROR:: Model Input:  Unknown specifier: [bottom ef]
ERROR:: Model Input:  In section: [initial condition 1]
ERROR:: Model Input:  For property name:[ef]
ERROR:: Model Input: 
ERROR:: Model Input:  Unknown specifier: [bottom ef]
ERROR:: Model Input:  In section: [initial condition 1]
ERROR:: Model Input:  For property name:[ef]
ERROR:: Model Input: 
ERROR:: Model Input:  Unknown specifier: [bottom ef]
ERROR:: Model Input:  In section: [initial condition 1]
ERROR:: Model Input:  For property name:[ef]
ERROR:: Model Input: 
ERROR:: Model Input:  Unknown specifier: [bottom ef]
ERROR:: Model Input:  In section: [initial condition 1]
ERROR:: Model Input:  For property name:[ef]
ERROR:: Model Input: 
ERROR:: Model Input:  Unknown specifier: [bottom ef]
ERROR:: Model Input:  In section: [initial condition 1]
ERROR:: Model Input:  For property name:[ef]
ERROR:: Model Input: 
ERROR:: Model Input:  Unknown specifier: [bottom ef]
ERROR:: Model Input:  In section: [initial condition 1]
ERROR:: Model Input:  For property name:[ef]
ERROR:: Model Input: 
ERROR:: Model Input:  Unknown specifier: [bottom ef]
ERROR:: Model Input:  In section: [initial condition 1]
ERROR:: Model Input:  For property name:[ef]
ERROR:: Model Input: 
ERROR:: Model Input:  Unknown specifier: [bottom ef]
ERROR:: Model Input:  In section: [initial condition 1]
ERROR:: Model Input:  For property name:[ef]
ERROR:: Model Input: 
ERROR:: Model Input:  Unknown specifier: [bottom ef]
ERROR:: Model Input:  In section: [initial condition 1]
ERROR:: Model Input:  For property name:[ef]
ERROR:: Model Input: 
ERROR:: Model Input:  Unknown specifier: [bottom ef]
ERROR:: Model Input:  In section: [initial condition 1]
ERROR:: Model Input:  For property name:[ef]
ERROR:: Model Input: 
ERROR:: Model Input:  Unknown specifier: [bottom ef]
ERROR:: Model Input:  In section: [initial condition 1]
ERROR:: Model Input:  For property name:[ef]
ERROR:: Model Input: 
ERROR:: Model Input:  Unknown specifier: [bottom ef]
ERROR:: Model Input:  In section: [initial condition 1]
ERROR:: Model Input:  For property name:[ef]
ERROR:: Model Input: 
ERROR:: Model Input:  Unknown specifier: [bottom ef]
ERROR:: Model Input:  In section: [initial condition 1]
ERROR:: Model Input:  For property name:[ef]
ERROR:: Model Input: 
ERROR:: Model Input:  Unknown specifier: [bottom ef]
ERROR:: Model Input:  In section: [initial condition 1]
ERROR:: Model Input:  For property name:[ef]
ERROR:: Model Input: 
ERROR:: Model Input:  Unknown specifier: [bottom ef]
ERROR:: Model Input:  In section: [initial condition 1]
ERROR:: Model Input:  For property name:[ef]
ERROR:: Model Input: 
ERROR:: Model Input:  Unknown specifier: [bottom ef]
ERROR:: Model Input:  In section: [initial condition 1]
ERROR:: Model Input:  For property name:[ef]
ERROR:: Model Input: 
ERROR:: Model Input:  Unknown specifier: [bottom ef]
ERROR:: Model Input:  In section: [initial condition 1]
ERROR:: Model Input:  For property name:[ef]
ERROR:: Model Input: 
ERROR:: Model Input:  Unknown specifier: [bottom ef]
ERROR:: Model Input:  In section: [initial condition 1]
ERROR:: Model Input:  For property name:[ef]
ERROR:: Model Input: 
ERROR:: Model Input:  Unknown specifier: [bottom ef]
ERROR:: Model Input:  In section: [initial condition 1]
ERROR:: Model Input:  For property name:[ef]
ERROR:: Model Input: 
ERROR:: Model Input:  Unknown specifier: [bottom ef]
ERROR:: Model Input:  In section: [initial condition 1]
ERROR:: Model Input:  For property name:[ef]
ERROR:: Model Input: 
ERROR:: Model Input:  Unknown specifier: [bottom ef]
ERROR:: Model Input:  In section: [initial condition 1]
ERROR:: Model Input:  For property name:[ef]
ERROR:: Model Input: 
ERROR:: Model Input:  Unknown specifier: [bottom ef]
ERROR:: Model Input:  In section: [initial condition 1]
ERROR:: Model Input:  For property name:[ef]
ERROR:: Model Input: 
ERROR:: Model Input:  Unknown specifier: [bottom ef]
ERROR:: Model Input:  In section: [initial condition 1]
ERROR:: Model Input:  For property name:[ef]
ERROR:: Model Input: 
ERROR:: Model Input:  Unknown specifier: [bottom ef]
ERROR:: Model Input:  In section: [initial condition 1]
ERROR:: Model Input:  For property name:[ef]
ERROR:: Model Input: 
ERROR:: Model Input:  Unknown specifier: [bottom ef]
ERROR:: Model Input:  In section: [initial condition 1]
ERROR:: Model Input:  For property name:[ef]
ERROR:: Model Input: 
ERROR:: Model Input:  Unknown specifier: [bottom ef]
ERROR:: Model Input:  In section: [initial condition 1]
ERROR:: Model Input:  For property name:[ef]
ERROR:: Model Input: 
ERROR:: Model Input:  Unknown specifier: [bottom ef]
ERROR:: Model Input:  In section: [initial condition 1]
ERROR:: Model Input:  For property name:[ef]
